2024-10-23T16:15:42,322  INFO Gbl:64 JVM: 21.0.4; Eclipse Adoptium; mixed mode, sharing; 64-bit
2024-10-23T16:15:42,323  INFO Gbl:68 OS: Linux; 5.15.0-122-generic; amd64
2024-10-23T16:15:42,323  INFO Gbl:71 CPU cores: 24
2024-10-23T16:15:42,324  INFO Gbl:72 max. Memory: 20480.0MB (21474836480B)
2024-10-23T16:15:42,325  INFO Gbl:114 MATSim-Build: rb66862024feef0d0593bbceabcfe331e3ca1e869 (2024-10-23 16:13:59)
2024-10-23T16:15:42,325  INFO Gbl:76 Command: org.matsim.contrib.ev.example.RunEvExampleWithEvScoring /home/isaacpeterson/research/repos/rl-matsim-example-project/scenarios/originalev/evconfig.xml
2024-10-23T16:15:42,328  INFO ControlerListenerManagerImpl:112 calling notifyStartup on org.matsim.core.controler.ControlerDefaultsModule$1 with priority 0.0
2024-10-23T16:15:42,329  INFO MemoryObserver:42 used RAM: 171 MB  free: 10068 MB  total: 10240 MB
2024-10-23T16:15:42,359  INFO ControlerListenerManagerImpl:112 calling notifyStartup on org.matsim.guice.DependencyGraphControlerListener with priority 0.0
2024-10-23T16:15:42,418  INFO ControlerListenerManagerImpl:112 calling notifyStartup on org.matsim.counts.CountsControlerListener with priority 0.0
2024-10-23T16:15:42,418  INFO ControlerListenerManagerImpl:112 calling notifyStartup on org.matsim.analysis.ModeChoiceCoverageControlerListener with priority 0.0
2024-10-23T16:15:42,418  INFO ControlerListenerManagerImpl:112 calling notifyStartup on org.matsim.analysis.ModeStatsControlerListener with priority 0.0
2024-10-23T16:15:42,418  INFO ControlerListenerManagerImpl:112 calling notifyStartup on org.matsim.analysis.ScoreStatsControlerListener with priority 0.0
2024-10-23T16:15:42,419  INFO ControlerListenerManagerImpl:115 all ControlerStartupListeners called.
2024-10-23T16:15:42,419  INFO ControllerUtils:97 config dump before iterations start
2024-10-23T16:15:42,432  INFO ControllerUtils:101 

<?xml version="1.0" encoding="UTF-8"?>
<!DOCTYPE config SYSTEM "http://www.matsim.org/files/dtd/config_v2.dtd">
<config>
	<module name="changeMode" >
		<!-- Defines whether car availability is considered be considered or not. An agent has no car only if it has no license, or never access to a car. Default: true -->
		<param name="ignoreCarAvailability" value="true" />
		<!-- Defines the mode switch behavior. Possible values [fromAllModesToSpecifiedModes, fromSpecifiedModesToSpecifiedModes] Default: fromSpecifiedModesToSpecifiedModes. -->
		<param name="modeSwitchBehavior" value="fromSpecifiedModesToSpecifiedModes" />
		<!-- Defines all the modes available, including chain-based modes, seperated by commas -->
		<param name="modes" value="car,pt" />
	</module>
	<module name="controller" >
		<!-- Defines what should be done with the ITERS directory when a simulation finished successfully -->
		<param name="cleanItersAtEnd" value="keep" />
		<!-- Compression algorithm to use when writing out data to files. Possible values: [none, gzip, lz4, zst] -->
		<param name="compressionType" value="gzip" />
		<!-- Sets the interval in which graphs are generated. Default is 1. If set to 0, no graphs are generated. The generation of graphs usually takes a small amount of time that does not have any weight in big simulations, but add a significant overhead in smaller runs or in test cases where the graphical output is not even requested. -->
		<param name="createGraphsInterval" value="1" />
		<!-- Defines when the scoring functions for the population are created. Default=IterationStarts. Possible values: [IterationStarts, BeforeMobsim] -->
		<param name="createScoringFunctionType" value="IterationStarts" />
		<!-- true if at the end of a run, plans, network, config etc should be dumped to a file -->
		<param name="dumpDataAtEnd" value="true" />
		<!-- Default=false. If enabled, the router takes travel times needed for turning moves into account. Can only be used with Dijkstra routing. Cannot be used when TravelTimeCalculator.separateModes is enabled. -->
		<param name="enableLinkToLinkRouting" value="false" />
		<!-- Default=xml; Specifies the file format for writing events. Currently supported: [xml, pb, json]
		Multiple values can be specified separated by commas (','). -->
		<param name="eventsFileFormat" value="xml" />
		<!-- Default=0. First Iteration of a simulation. -->
		<param name="firstIteration" value="0" />
		<!-- Default=1000. Last Iteration of a simulation. -->
		<param name="lastIteration" value="5" />
		<!-- Defines the interval for printing memory usage to the log in [seconds]. Must be positive. Defaults to 60. -->
		<param name="memoryObserverInterval" value="60" />
		<!-- Defines which mobility simulation will be used. Currently supported: [qsim, JDEQSim, hermes]
		Depending on the chosen mobsim, you'll have to add additional config modules to configure the corresponding mobsim.
		For 'qsim', add a module 'qsim' to the config. -->
		<param name="mobsim" value="qsim" />
		<param name="outputDirectory" value="./scenarios/originalev/evexample" />
		<!-- Possible values: failIfDirectoryExists,overwriteExistingFiles,deleteDirectoryIfExists -->
		<param name="overwriteFiles" value="deleteDirectoryIfExists" />
		<!-- The type of routing (least cost path) algorithm used, may have the values: [Dijkstra, AStarLandmarks, SpeedyALT] -->
		<param name="routingAlgorithmType" value="SpeedyALT" />
		<!-- An identifier for the current run which is used as prefix for output files and mentioned in output xml files etc. -->
		<param name="runId" value="null" />
		<!-- Comma-separated list of visualizer output file formats. `transims' and `otfvis'. -->
		<param name="snapshotFormat" value="" />
		<!-- iterationNumber % writeEventsInterval == 0 defines in which iterations events are written to a file. `0' disables events writing completely. -->
		<param name="writeEventsInterval" value="50" />
		<!-- iterationNumber % writePlansInterval == 0 defines (hopefully) in which iterations plans are written to a file. `0' disables plans writing completely.  Some plans in early iterations are always written -->
		<param name="writePlansInterval" value="50" />
		<!-- iterationNumber % writeSnapshotsInterval == 0 defines in which iterations snapshots are written to a file. `0' disables snapshots writing completely -->
		<param name="writeSnapshotsInterval" value="1" />
		<!-- iterationNumber % writeEventsInterval == 0 defines in which iterations trips CSV are written to a file. `0' disables trips writing completely. -->
		<param name="writeTripsInterval" value="50" />
	</module>
	<module name="counts" >
		<!-- Transport modes that will be respected for the counts comparison. 'car' is default, which includes also bussed from the pt simulation module. Use this parameter in combination with 'filterModes' = true! -->
		<param name="analyzedModes" value="car" />
		<!-- Specifies over how many iterations the link volumes should be averaged that are used for the counts comparison. Use 1 or 0 to only use the link volumes of a single iteration. This values cannot be larger than the value specified for writeCountsInterval -->
		<param name="averageCountsOverIterations" value="5" />
		<!-- factor by which to re-scale the simulated values.  necessary when simulation runs with something different from 100%.  needs to be adapted manually -->
		<param name="countsScaleFactor" value="1.0" />
		<!-- distance to distanceFilterCenterNode to include counting stations. The unit of distance is the Euclidean distance implied by the coordinate system -->
		<param name="distanceFilter" value="null" />
		<!-- node id for center node of distance filter -->
		<param name="distanceFilterCenterNode" value="null" />
		<!-- If true, link counts from legs performed on modes not included in the 'analyzedModes' parameter are ignored. -->
		<param name="filterModes" value="false" />
		<!-- The Coordinates Reference System in which the coordinates are expressed in the input file. At import, the coordinates will be converted to the coordinate system defined in "global", and willbe converted back at export. If not specified, no conversion happens. -->
		<param name="inputCRS" value="null" />
		<!-- input file name to counts package -->
		<param name="inputCountsFile" value="null" />
		<!-- possible values: `html', `txt', `all' -->
		<param name="outputformat" value="txt" />
		<!-- Specifies how often the counts comparison should be calculated and written. -->
		<param name="writeCountsInterval" value="10" />
	</module>
	<module name="ev" >
		<!-- AUX discharging will be simulated every 'auxDischargeTimeStep'-th time step -->
		<param name="auxDischargeTimeStep" value="10" />
		<!-- charging will be simulated every 'chargeTimeStep'-th time step -->
		<param name="chargeTimeStep" value="5" />
		<!-- Location of the chargers file -->
		<param name="chargersFile" value="evchargers1.xml" />
		<!-- If true, prolongs the charging interaction for the amount of time waiting in the charger queue (plus 1 second), i.e.enforces that charging interactions are undertaken as long as initially planned (by EVNetworkRoutingModule). Default is false. -->
		<param name="enforceChargingInteractionDuration" value="false" />
		<!-- Minimum activity duration for charging. Used in EvNetwork Routing. -->
		<param name="minChargingTime" value="1200" />
		<!-- Number of individual time profiles to be created -->
		<param name="numberOfIndividualTimeProfiles" value="50" />
		<!-- If true, charge/SoC time profile plots will be created -->
		<param name="timeProfiles" value="true" />
		<!-- determines whether the resulting SoC at the end of the iteration X is set to be the initial SoCin iteration X+1 for each EV. If set to true, bear in mind that EV might start with 0% battery charge. -->
		<param name="transferFinalSoCToNextIteration" value="false" />
	</module>
	<module name="eventsManager" >
		<!-- Estimated number of events during mobsim run. An optional optimization hint for the framework. -->
		<param name="estimatedNumberOfEvents" value="null" />
		<!-- Size of the events Queue. Increase for very large scenarios -->
		<param name="eventsQueueSize" value="131072" />
		<!-- Number of threads for parallel events handler. _null_ means the framework decides by itself. 0 is currently not possible. -->
		<param name="numberOfThreads" value="null" />
		<!-- If enabled, each event handler is assigned to its own thread. Note that enabling this feature disabled the numberOfThreads option! This feature is still experimental! -->
		<param name="oneThreadPerHandler" value="false" />
		<!-- If enabled, it is ensured that all events that are created during a time step of the mobility simulation are processed before the next time step is simulated. E.g. neccessary when within-day replanning is used. -->
		<param name="synchronizeOnSimSteps" value="true" />
	</module>
	<module name="facilities" >
		<!-- This defines how facilities should be created. Possible values: none fromFile setInScenario onePerActivityLinkInPlansFile onePerActivityLinkInPlansFileExceptWhenCoordinatesAreGiven onePerActivityLocationInPlansFile  -->
		<param name="facilitiesSource" value="none" />
		<!-- A prefix to be used for auto-generated IDs. -->
		<param name="idPrefix" value="f_auto_" />
		<!-- The Coordinates Reference System in which the coordinates are expressed in the input file. At import, the coordinates will be converted to the coordinate system defined in "global", and willbe converted back at export. If not specified, no conversion happens. -->
		<param name="inputCRS" value="null" />
		<param name="inputFacilitiesFile" value="null" />
		<param name="inputFacilityAttributesFile" value="null" />
		<param name="insistingOnUsingDeprecatedFacilitiesAttributeFile" value="false" />
	</module>
	<module name="global" >
		<param name="coordinateSystem" value="Atlantis" />
		<param name="defaultDelimiter" value=";" />
		<param name="insistingOnDeprecatedConfigVersion" value="true" />
		<!-- "global" number of threads.  This number is used, e.g., for replanning, but NOT in QSim.  This can typically be set to as many cores as you have available, or possibly even slightly more. -->
		<param name="numberOfThreads" value="2" />
		<param name="randomSeed" value="4711" />
	</module>
	<module name="hermes" >
		<!-- Simulation End Time -->
		<param name="endTime" value="30:00:00" />
		<param name="flowCapacityFactor" value="1.0" />
		<param name="mainMode" value="car" />
		<param name="storageCapacityFactor" value="1.0" />
		<!-- time in seconds.  Time after which the frontmost vehicle on a link is called `stuck' if it does not move. Set to Integer.MAX_VALUE to disable this behavior -->
		<param name="stuckTime" value="10" />
		<!-- treats PT as deterministic. PT vehicles will run with a steady speed. Should be used with separate network layers for PT and other network modes. -->
		<param name="useDeterministicPt" value="false" />
	</module>
	<module name="households" >
		<param name="inputFile" value="null" />
		<param name="inputHouseholdAttributesFile" value="null" />
		<param name="insistingOnUsingDeprecatedHouseholdsAttributeFile" value="false" />
	</module>
	<module name="jdeqsim" >
		<param name="carSize" value="7.5" />
		<param name="endTime" value="undefined" />
		<param name="flowCapacityFactor" value="1.0" />
		<param name="gapTravelSpeed" value="15.0" />
		<param name="minimumInFlowCapacity" value="1800.0" />
		<param name="squeezeTime" value="1800.0" />
		<param name="storageCapacityFactor" value="1.0" />
	</module>
	<module name="linkStats" >
		<!-- Specifies over how many iterations the link volumes should be averaged that are used for the link statistics. Use 1 or 0 to only use the link volumes of a single iteration. This values cannot be larger than the value specified for writeLinkStatsInterval -->
		<param name="averageLinkStatsOverIterations" value="5" />
		<!-- Specifies how often the link stats should be calculated and written. Use 0 to disable the generation of link stats. -->
		<param name="writeLinkStatsInterval" value="50" />
	</module>
	<module name="network" >
		<!-- The Coordinates Reference System in which the coordinates are expressed in the input file. At import, the coordinates will be converted to the coordinate system defined in "global", and willbe converted back at export. If not specified, no conversion happens. -->
		<param name="inputCRS" value="null" />
		<param name="inputChangeEventsFile" value="null" />
		<param name="inputNetworkFile" value="evnetwork.xml" />
		<param name="laneDefinitionsFile" value="null" />
		<param name="timeVariantNetwork" value="false" />
	</module>
	<module name="planInheritance" >
		<!-- Specifies whether or not PlanInheritance Information should be tracked. -->
		<param name="enabled" value="false" />
	</module>
	<module name="plans" >
		<!-- String: minOfDurationAndEndTime tryEndTimeThenDuration endTimeOnly. Anything besides minOfDurationAndEndTime will internally use a different (simpler) version of the TimeAllocationMutator. -->
		<param name="activityDurationInterpretation" value="tryEndTimeThenDuration" />
		<!-- Possible values: reject,useMainModeIdentifier -->
		<param name="handlingOfPlansWithoutRoutingMode" value="useMainModeIdentifier" />
		<!-- The Coordinates Reference System in which the coordinates are expressed in the input file. At import, the coordinates will be converted to the coordinate system defined in "global", and willbe converted back at export. If not specified, no conversion happens. -->
		<param name="inputCRS" value="null" />
		<param name="inputPersonAttributesFile" value="null" />
		<param name="inputPlansFile" value="agent15pop.xml" />
		<param name="insistingOnUsingDeprecatedPersonAttributeFile" value="false" />
		<!-- Defines how routes are stored in memory. Currently supported: LinkNetworkRoute, MediumCompressedNetworkRoute, HeavyCompressedNetworkRoute. -->
		<param name="networkRouteType" value="LinkNetworkRoute" />
		<!-- (not tested) will remove plan attributes that are presumably not used, such as activityStartTime. default=false. Use with Caution! -->
		<param name="removingUnnecessaryPlanAttributes" value="false" />
		<!-- Defines how departure times are interpreted in rerouting applications. If set to 'ignoreDelays', the departure time of a trip when routing along a plan will always be the nominal (plan-based) activity end time. If set to 'shiftActivityEndTimes', routing along a plan will accumulate travel times and shift activity end times if necessary -->
		<param name="tripDurationHandling" value="ignoreDelays" />
	</module>
	<module name="qsim" >
		<param name="endTime" value="24:00:00" />
		<!-- If set to withLinkAttributes snapshots will only be generated for links which include generateSnapshotForLink as attribute key. Default is no filtering. -->
		<param name="filterSnapshots" value="no" />
		<param name="flowCapacityFactor" value="1.0" />
		<!-- decides if waiting vehicles enter the network after or before the already driving vehicles were moved. Default: false -->
		<param name="insertingWaitingVehiclesBeforeDrivingVehicles" value="true" />
		<!-- If link dynamics is set as SeepageQ, set to false if all seep modes should perform seepage. Default is true (better option). -->
		<param name="isRestrictingSeepage" value="true" />
		<!-- If link dynamics is set as SeepageQ, set to true if seep mode do not consumes any space on the link. Default is false. -->
		<param name="isSeepModeStorageFree" value="false" />
		<!-- default: FIFO; options: FIFO PassingQ SeepageQ -->
		<param name="linkDynamics" value="FIFO" />
		<!-- The (initial) width of the links of the network. Use positive floating point values. This is used only for visualisation. -->
		<param name="linkWidth" value="30.0" />
		<!-- [comma-separated list] Defines which modes are congested modes. Technically, these are the modes that the departure handler of the netsimengine handles.  Effective cell size, effective lane width, flow capacity factor, and storage capacity factor need to be set with diligence.  Need to be vehicular modes to make sense. -->
		<param name="mainMode" value="car" />
		<!-- Shortens a link in the visualization, i.e. its start and end point are moved into towards the center. Does not affect traffic flow.  -->
		<param name="nodeOffset" value="0.0" />
		<!-- Number of threads used for the QSim.  Note that this setting is independent from the "global" threads setting.  In contrast to earlier versions, the non-parallel special version is no longer there. -->
		<param name="numberOfThreads" value="1" />
		<!-- Boolean. `true': stuck vehicles are removed, aborting the plan; `false': stuck vehicles are forced into the next link. `false' is probably the better choice. -->
		<param name="removeStuckVehicles" value="false" />
		<!-- If link dynamics is set as SeepageQ, set a seep mode. Default is bike. -->
		<param name="seepMode" value="bike" />
		<!-- Possible values: minOfEndtimeAndMobsimFinished,onlyUseEndtime -->
		<param name="simEndtimeInterpretation" value="null" />
		<!-- Options: maxOfStarttimeAndEarliestActivityEnd onlyUseStarttime  -->
		<param name="simStarttimeInterpretation" value="onlyUseStarttime" />
		<!-- snapshotStyle. One of: equiDist queue withHoles withHolesAndShowHoles kinematicWaves  -->
		<param name="snapshotStyle" value="queue" />
		<param name="snapshotperiod" value="00:00:00" />
		<param name="startTime" value="00:00:00" />
		<param name="storageCapacityFactor" value="1.0" />
		<!-- time in seconds.  Time after which the frontmost vehicle on a link is called `stuck' if it does not move. -->
		<param name="stuckTime" value="10.0" />
		<param name="timeStepSize" value="00:00:01" />
		<!-- options: queue withHoles kinematicWaves  -->
		<param name="trafficDynamics" value="queue" />
		<!-- Set this parameter to true if lanes should be used, false if not. -->
		<param name="useLanes" value="false" />
		<!-- If a route does not reference a vehicle, agents will use the vehicle with the same id as their own. -->
		<param name="usePersonIdForMissingVehicleId" value="true" />
		<!-- If false, the qsim accumulates fractional flows up to one flow unit in every time step.  If true, flows are updated only if an agent wants to enter the link or an agent is added to buffer. Default is true. -->
		<param name="usingFastCapacityUpdate" value="true" />
		<!-- Defines what happens if an agent wants to depart, but the specified vehicle is not available. One of: teleport wait exception  -->
		<param name="vehicleBehavior" value="teleport" />
		<!-- If vehicles should all be the same default vehicle, or come from the vehicles file, or something else.  Possible values:  defaultVehicle modeVehicleTypesFromVehiclesData fromVehiclesData -->
		<param name="vehiclesSource" value="defaultVehicle" />
	</module>
	<module name="replanning" >
		<!-- the external executable will be called with a config file as argument.  This is the pathname to a possible skeleton config, to which additional information will be added.  Can be null. -->
		<param name="ExternalExeConfigTemplate" value="null" />
		<!-- time out value (in seconds) after which matsim will consider the external strategy as failed -->
		<param name="ExternalExeTimeOut" value="3600" />
		<!-- root directory for temporary files generated by the external executable. Provided as a service; I don't think this is used by MATSim. -->
		<param name="ExternalExeTmpFileRootDir" value="null" />
		<!-- fraction of iterations where innovative strategies are switched off.  Something like 0.8 should be good.  E.g. if you run from iteration 400 to iteration 500, innovation is switched off at iteration 480. If the ReplanningAnnealer is used, it will also be switched off. -->
		<param name="fractionOfIterationsToDisableInnovation" value="Infinity" />
		<!-- maximum number of plans per agent.  ``0'' means ``infinity''.  Currently (2010), ``5'' is a good number -->
		<param name="maxAgentPlanMemorySize" value="5" />
		<!-- strategyName of PlanSelector for plans removal.  Possible defaults: WorstPlanSelector SelectRandom SelectExpBetaForRemoval ChangeExpBetaForRemoval PathSizeLogitSelectorForRemoval . The current default, WorstPlanSelector is not a good choice from a discrete choice theoretical perspective. Alternatives, however, have not been systematically tested. kai, feb'12 -->
		<param name="planSelectorForRemoval" value="WorstPlanSelector" />
		<parameterset type="strategysettings" >
			<!-- iteration after which strategy will be disabled.  most useful for ``innovative'' strategies (new routes, new times, ...). Normally, better use fractionOfIterationsToDisableInnovation -->
			<param name="disableAfterIteration" value="-1" />
			<!-- path to external executable (if applicable) -->
			<param name="executionPath" value="null" />
			<!-- strategyName of strategy.  Possible default names: SelectRandom BestScore KeepLastSelected ChangeExpBeta SelectExpBeta SelectPathSizeLogit      (selectors), ReRouteTimeAllocationMutatorTimeAllocationMutator_ReRouteChangeSingleTripModeChangeTripModeSubtourModeChoice (innovative strategies). -->
			<param name="strategyName" value="BestScore" />
			<!-- subpopulation to which the strategy applies. "null" refers to the default population, that is, the set of persons for which no explicit subpopulation is defined (ie no subpopulation attribute) -->
			<param name="subpopulation" value="null" />
			<!-- weight of a strategy: for each agent, a strategy will be selected with a probability proportional to its weight -->
			<param name="weight" value="0.6" />
		</parameterset>
		<parameterset type="strategysettings" >
			<param name="disableAfterIteration" value="-1" />
			<param name="executionPath" value="null" />
			<param name="strategyName" value="ReRoute" />
			<param name="subpopulation" value="null" />
			<param name="weight" value="0.4" />
		</parameterset>
	</module>
	<module name="replanningAnnealer" >
		<!-- Activate the scaling of replanning modules using an annealing approach rather than fixed rates. -->
		<param name="activateAnnealingModule" value="false" />
	</module>
	<module name="routing" >
		<!-- Defines how access and egress to main mode is simulated. Either of [none, accessEgressModeToLink, walkConstantTimeToLink, accessEgressModeToLinkPlusTimeConstant], Current default=none which means no access or egress trips are simulated. -->
		<param name="accessEgressType" value="none" />
		<!-- Some typical teleportation routing params are set by default, such as for walk and bike.  Setting this switch to "true" will clear them.  Note that this will also clear settings for helper modes such as for non_network_walk -->
		<param name="clearDefaultTeleportedModeParams" value="false" />
		<!-- All the modes for which the router is supposed to generate network routes (like car) -->
		<param name="networkModes" value="car" />
		<!-- Defines whether the network consistency should be checked. -->
		<param name="networkRouteConsistencyCheck" value="abortOnInconsistency" />
		<!-- strength of the randomness for the utility of money in routing under toll.  Leads to Pareto-optimal route with randomly drawn money-vs-other-attributes tradeoff. Technically the width parameter of a log-normal distribution. 3.0 seems to be a good value.  -->
		<param name="routingRandomness" value="3.0" />
		<parameterset type="teleportedModeParameters" >
			<param name="beelineDistanceFactor" value="1.3" />
			<param name="mode" value="bike" />
			<!-- Free-speed factor for a teleported mode. Travel time = teleportedModeFreespeedFactor * <freespeed car travel time>. Insert a line like this for every such mode. Please do not set teleportedModeFreespeedFactor as well as teleportedModeSpeed for the same mode, but if you do, +teleportedModeFreespeedFactor wins over teleportedModeSpeed. -->
			<param name="teleportedModeFreespeedFactor" value="null" />
			<!-- Speed for a teleported mode. Travel time = (<beeline distance> * beelineDistanceFactor) / teleportedModeSpeed. Insert a line like this for every such mode. -->
			<param name="teleportedModeSpeed" value="4.166666666666667" />
		</parameterset>
		<parameterset type="teleportedModeParameters" >
			<param name="beelineDistanceFactor" value="1.3" />
			<param name="mode" value="walk" />
			<param name="teleportedModeFreespeedFactor" value="null" />
			<param name="teleportedModeSpeed" value="0.8333333333333333" />
		</parameterset>
		<parameterset type="teleportedModeParameters" >
			<param name="beelineDistanceFactor" value="1.3" />
			<param name="mode" value="non_network_walk" />
			<param name="teleportedModeFreespeedFactor" value="null" />
			<param name="teleportedModeSpeed" value="0.8333333333333333" />
		</parameterset>
		<parameterset type="teleportedModeParameters" >
			<param name="beelineDistanceFactor" value="1.3" />
			<param name="mode" value="ride" />
			<param name="teleportedModeFreespeedFactor" value="1.0" />
			<param name="teleportedModeSpeed" value="null" />
		</parameterset>
		<parameterset type="teleportedModeParameters" >
			<param name="beelineDistanceFactor" value="1.3" />
			<param name="mode" value="pt" />
			<param name="teleportedModeFreespeedFactor" value="2.0" />
			<param name="teleportedModeSpeed" value="null" />
		</parameterset>
	</module>
	<module name="scoring" >
		<!-- logit model scale parameter. default: 1.  Has name and default value for historical reasons (see Bryan Raney's phd thesis). -->
		<param name="brainExpBeta" value="2.0" />
		<!-- fraction of iterations at which MSA score averaging is started. The matsim theory department suggests to use this together with switching off choice set innovation (where a similar switch exists), but it has not been tested yet. -->
		<param name="fractionOfIterationsToStartScoreMSA" value="null" />
		<!-- new_score = (1-learningRate)*old_score + learningRate * score_from_mobsim.  learning rates close to zero emulate score averaging, but slow down initial convergence -->
		<param name="learningRate" value="1.0" />
		<param name="pathSizeLogitBeta" value="1.0" />
		<!-- There used to be a plateau between duration=0 and duration=zeroUtilityDuration. This caused durations to evolve to zero once they were below zeroUtilityDuration, causing problems.  Only use this switch if you need to be backwards compatible with some old results.  (changed nov'13) -->
		<param name="usingOldScoringBelowZeroUtilityDuration" value="false" />
		<!-- write a plans file in each iteration directory which contains what each agent actually did, and the score it received. -->
		<param name="writeExperiencedPlans" value="false" />
		<!-- Write detailed score composition into plan attributes after execution. -->
		<param name="writeScoreExplanations" value="false" />
		<parameterset type="scoringParameters" >
			<param name="earlyDeparture" value="-0.0" />
			<param name="lateArrival" value="-18.0" />
			<param name="marginalUtilityOfMoney" value="1.0" />
			<param name="performing" value="6.0" />
			<param name="subpopulation" value="null" />
			<param name="utilityOfLineSwitch" value="-1.0" />
			<param name="waiting" value="-0.0" />
			<param name="waitingPt" value="-6.0" />
			<parameterset type="activityParams" >
				<param name="activityType" value="dummy" />
				<param name="closingTime" value="undefined" />
				<param name="earliestEndTime" value="undefined" />
				<param name="latestStartTime" value="undefined" />
				<param name="minimalDuration" value="undefined" />
				<param name="openingTime" value="undefined" />
				<param name="priority" value="1.0" />
				<param name="scoringThisActivityAtAll" value="true" />
				<!-- typical duration of activity.  needs to be defined and non-zero.  in sec. -->
				<param name="typicalDuration" value="02:00:00" />
				<!-- method to compute score at typical duration.  Options: | uniform | relative | Use uniform for backwards compatibility (all activities same score; higher proba to drop long acts). -->
				<param name="typicalDurationScoreComputation" value="relative" />
			</parameterset>
			<parameterset type="activityParams" >
				<param name="activityType" value="car interaction" />
				<param name="closingTime" value="undefined" />
				<param name="earliestEndTime" value="undefined" />
				<param name="latestStartTime" value="undefined" />
				<param name="minimalDuration" value="undefined" />
				<param name="openingTime" value="undefined" />
				<param name="priority" value="1.0" />
				<param name="scoringThisActivityAtAll" value="false" />
				<param name="typicalDuration" value="undefined" />
				<param name="typicalDurationScoreComputation" value="relative" />
			</parameterset>
			<parameterset type="activityParams" >
				<param name="activityType" value="pt interaction" />
				<param name="closingTime" value="undefined" />
				<param name="earliestEndTime" value="undefined" />
				<param name="latestStartTime" value="undefined" />
				<param name="minimalDuration" value="undefined" />
				<param name="openingTime" value="undefined" />
				<param name="priority" value="1.0" />
				<param name="scoringThisActivityAtAll" value="false" />
				<param name="typicalDuration" value="undefined" />
				<param name="typicalDurationScoreComputation" value="relative" />
			</parameterset>
			<parameterset type="activityParams" >
				<param name="activityType" value="bike interaction" />
				<param name="closingTime" value="undefined" />
				<param name="earliestEndTime" value="undefined" />
				<param name="latestStartTime" value="undefined" />
				<param name="minimalDuration" value="undefined" />
				<param name="openingTime" value="undefined" />
				<param name="priority" value="1.0" />
				<param name="scoringThisActivityAtAll" value="false" />
				<param name="typicalDuration" value="undefined" />
				<param name="typicalDurationScoreComputation" value="relative" />
			</parameterset>
			<parameterset type="activityParams" >
				<param name="activityType" value="drt interaction" />
				<param name="closingTime" value="undefined" />
				<param name="earliestEndTime" value="undefined" />
				<param name="latestStartTime" value="undefined" />
				<param name="minimalDuration" value="undefined" />
				<param name="openingTime" value="undefined" />
				<param name="priority" value="1.0" />
				<param name="scoringThisActivityAtAll" value="false" />
				<param name="typicalDuration" value="undefined" />
				<param name="typicalDurationScoreComputation" value="relative" />
			</parameterset>
			<parameterset type="activityParams" >
				<param name="activityType" value="taxi interaction" />
				<param name="closingTime" value="undefined" />
				<param name="earliestEndTime" value="undefined" />
				<param name="latestStartTime" value="undefined" />
				<param name="minimalDuration" value="undefined" />
				<param name="openingTime" value="undefined" />
				<param name="priority" value="1.0" />
				<param name="scoringThisActivityAtAll" value="false" />
				<param name="typicalDuration" value="undefined" />
				<param name="typicalDurationScoreComputation" value="relative" />
			</parameterset>
			<parameterset type="activityParams" >
				<param name="activityType" value="other interaction" />
				<param name="closingTime" value="undefined" />
				<param name="earliestEndTime" value="undefined" />
				<param name="latestStartTime" value="undefined" />
				<param name="minimalDuration" value="undefined" />
				<param name="openingTime" value="undefined" />
				<param name="priority" value="1.0" />
				<param name="scoringThisActivityAtAll" value="false" />
				<param name="typicalDuration" value="undefined" />
				<param name="typicalDurationScoreComputation" value="relative" />
			</parameterset>
			<parameterset type="activityParams" >
				<param name="activityType" value="walk interaction" />
				<param name="closingTime" value="undefined" />
				<param name="earliestEndTime" value="undefined" />
				<param name="latestStartTime" value="undefined" />
				<param name="minimalDuration" value="undefined" />
				<param name="openingTime" value="undefined" />
				<param name="priority" value="1.0" />
				<param name="scoringThisActivityAtAll" value="false" />
				<param name="typicalDuration" value="undefined" />
				<param name="typicalDurationScoreComputation" value="relative" />
			</parameterset>
			<parameterset type="activityParams" >
				<param name="activityType" value="h" />
				<param name="closingTime" value="undefined" />
				<param name="earliestEndTime" value="undefined" />
				<param name="latestStartTime" value="undefined" />
				<param name="minimalDuration" value="undefined" />
				<param name="openingTime" value="undefined" />
				<param name="priority" value="1.0" />
				<param name="scoringThisActivityAtAll" value="true" />
				<param name="typicalDuration" value="22:00:00" />
				<param name="typicalDurationScoreComputation" value="relative" />
			</parameterset>
			<parameterset type="activityParams" >
				<param name="activityType" value="w" />
				<param name="closingTime" value="18:00:00" />
				<param name="earliestEndTime" value="undefined" />
				<param name="latestStartTime" value="09:00:00" />
				<param name="minimalDuration" value="undefined" />
				<param name="openingTime" value="07:00:00" />
				<param name="priority" value="1.0" />
				<param name="scoringThisActivityAtAll" value="true" />
				<param name="typicalDuration" value="08:00:00" />
				<param name="typicalDurationScoreComputation" value="relative" />
			</parameterset>
			<parameterset type="activityParams" >
				<param name="activityType" value="car charging interaction" />
				<param name="closingTime" value="21:30:00" />
				<param name="earliestEndTime" value="undefined" />
				<param name="latestStartTime" value="undefined" />
				<param name="minimalDuration" value="undefined" />
				<param name="openingTime" value="07:30:00" />
				<param name="priority" value="1.0" />
				<param name="scoringThisActivityAtAll" value="false" />
				<param name="typicalDuration" value="01:30:00" />
				<param name="typicalDurationScoreComputation" value="relative" />
			</parameterset>
			<parameterset type="activityParams" >
				<param name="activityType" value="ride interaction" />
				<param name="closingTime" value="undefined" />
				<param name="earliestEndTime" value="undefined" />
				<param name="latestStartTime" value="undefined" />
				<param name="minimalDuration" value="undefined" />
				<param name="openingTime" value="undefined" />
				<param name="priority" value="1.0" />
				<param name="scoringThisActivityAtAll" value="false" />
				<param name="typicalDuration" value="undefined" />
				<param name="typicalDurationScoreComputation" value="relative" />
			</parameterset>
			<parameterset type="modeParams" >
				<!-- [utils] alternative-specific constant.  Normally per trip, but that is probably buggy for multi-leg trips. -->
				<param name="constant" value="0.0" />
				<!-- [unit_of_money/day] Fixed cost of mode, per day. -->
				<param name="dailyMonetaryConstant" value="0.0" />
				<!-- [utils] daily utility constant. default=0 to be backwards compatible -->
				<param name="dailyUtilityConstant" value="0.0" />
				<!-- [utils/m] utility of traveling (e.g. walking or driving) per m, normally negative.  this is on top of the time (dis)utility. -->
				<param name="marginalUtilityOfDistance_util_m" value="0.0" />
				<!-- [utils/hr] additional marginal utility of traveling.  normally negative.  this comes on top of the opportunity cost of time -->
				<param name="marginalUtilityOfTraveling_util_hr" value="-6.0" />
				<param name="mode" value="car" />
				<!-- [unit_of_money/m] conversion of distance into money. Normally negative. -->
				<param name="monetaryDistanceRate" value="0.0" />
			</parameterset>
			<parameterset type="modeParams" >
				<param name="constant" value="0.0" />
				<param name="dailyMonetaryConstant" value="0.0" />
				<param name="dailyUtilityConstant" value="0.0" />
				<param name="marginalUtilityOfDistance_util_m" value="0.0" />
				<param name="marginalUtilityOfTraveling_util_hr" value="-6.0" />
				<param name="mode" value="pt" />
				<param name="monetaryDistanceRate" value="0.0" />
			</parameterset>
			<parameterset type="modeParams" >
				<param name="constant" value="0.0" />
				<param name="dailyMonetaryConstant" value="0.0" />
				<param name="dailyUtilityConstant" value="0.0" />
				<param name="marginalUtilityOfDistance_util_m" value="0.0" />
				<param name="marginalUtilityOfTraveling_util_hr" value="-6.0" />
				<param name="mode" value="walk" />
				<param name="monetaryDistanceRate" value="0.0" />
			</parameterset>
			<parameterset type="modeParams" >
				<param name="constant" value="0.0" />
				<param name="dailyMonetaryConstant" value="0.0" />
				<param name="dailyUtilityConstant" value="0.0" />
				<param name="marginalUtilityOfDistance_util_m" value="0.0" />
				<param name="marginalUtilityOfTraveling_util_hr" value="-6.0" />
				<param name="mode" value="bike" />
				<param name="monetaryDistanceRate" value="0.0" />
			</parameterset>
			<parameterset type="modeParams" >
				<param name="constant" value="0.0" />
				<param name="dailyMonetaryConstant" value="0.0" />
				<param name="dailyUtilityConstant" value="0.0" />
				<param name="marginalUtilityOfDistance_util_m" value="0.0" />
				<param name="marginalUtilityOfTraveling_util_hr" value="-6.0" />
				<param name="mode" value="ride" />
				<param name="monetaryDistanceRate" value="0.0" />
			</parameterset>
			<parameterset type="modeParams" >
				<param name="constant" value="0.0" />
				<param name="dailyMonetaryConstant" value="0.0" />
				<param name="dailyUtilityConstant" value="0.0" />
				<param name="marginalUtilityOfDistance_util_m" value="0.0" />
				<param name="marginalUtilityOfTraveling_util_hr" value="-6.0" />
				<param name="mode" value="other" />
				<param name="monetaryDistanceRate" value="0.0" />
			</parameterset>
		</parameterset>
	</module>
	<module name="subtourModeChoice" >
		<!-- Only for backwards compatibility.  Defines if only trips from modes list should change mode, or all trips.  Options: fromAllModesToSpecifiedModes fromSpecifiedModesToSpecifiedModes betweenAllAndFewerConstraints  -->
		<param name="behavior" value="fromSpecifiedModesToSpecifiedModes" />
		<!-- Defines the chain-based modes, seperated by commas -->
		<param name="chainBasedModes" value="car,bike" />
		<!-- Defines whether car availability must be considered or not. A agent has no car only if it has no license, or never access to a car -->
		<param name="considerCarAvailability" value="false" />
		<!-- If greater than 0, activities that are closer than coordDistance, to each other, will be considered part of the same subtour.i.e. if two activities are close to each other, the agent is allowed to use the same 'chain-based' vehicle for both subtours. -->
		<param name="coordDistance" value="0.0" />
		<!-- Defines all the modes available, including chain-based modes, seperated by commas -->
		<param name="modes" value="car,pt,bike,walk" />
		<!-- Defines the probability of changing a single trip for a unchained mode instead of subtour. -->
		<param name="probaForRandomSingleTripMode" value="0.0" />
	</module>
	<module name="timeAllocationMutator" >
		<!-- Latest Activity End Time. Default = 24:00:00 -->
		<param name="latestActivityEndTime" value="86400.0" />
		<!-- Mutates times only around the initially defined end times. -->
		<param name="mutateAroundInitialEndTimeOnly" value="false" />
		<!-- Default:true; Defines whether time mutation changes an activity's duration. -->
		<param name="mutationAffectsDuration" value="true" />
		<!-- Default:1800.0; Defines how many seconds a time mutation can maximally shift a time. -->
		<param name="mutationRange" value="1800.0" />
		<!-- Mutation Range Step, default = 1 second -->
		<param name="mutationRangeStep" value="1.0" />
	</module>
	<module name="transit" >
		<!-- The Coordinates Reference System in which the coordinates are expressed in the input file. At import, the coordinates will be converted to the coordinate system defined in "global", and willbe converted back at export. If not specified, no conversion happens. -->
		<param name="inputScheduleCRS" value="null" />
		<param name="insistingOnUsingDeprecatedAttributeFiles" value="false" />
		<!-- The type of transit routing algorithm used, may have the values: [DijkstraBased, SwissRailRaptor] -->
		<param name="routingAlgorithmType" value="SwissRailRaptor" />
		<!-- Optional input file containing additional attributes for transit lines, stored as ObjectAttributes. -->
		<param name="transitLinesAttributesFile" value="null" />
		<!-- Comma-separated list of transportation modes that are handled as transit. Defaults to 'pt'. -->
		<param name="transitModes" value="pt" />
		<!-- Input file containing the transit schedule to be simulated. -->
		<param name="transitScheduleFile" value="null" />
		<!-- Optional input file containing additional attributes for transit stop facilities, stored as ObjectAttributes. -->
		<param name="transitStopsAttributesFile" value="null" />
		<!-- Set this parameter to true if transit should be simulated, false if not. -->
		<param name="useTransit" value="false" />
		<param name="usingTransitInMobsim" value="true" />
		<!-- Input file containing the vehicles used by the departures in the transit schedule. -->
		<param name="vehiclesFile" value="null" />
	</module>
	<module name="transitRouter" >
		<!-- additional time the router allocates when a line switch happens. Can be interpreted as a 'safety' time that agents need to safely transfer from one line to another -->
		<param name="additionalTransferTime" value="0.0" />
		<!-- Factor with which direct walk generalized cost is multiplied before it is compared to the pt generalized cost.  Set to a very high value to reduce direct walk results. -->
		<param name="directWalkFactor" value="1.0" />
		<!-- step size to increase searchRadius if no stops are found -->
		<param name="extensionRadius" value="200.0" />
		<!-- maximum beeline distance between stops that agents could transfer to by walking -->
		<param name="maxBeelineWalkConnectionDistance" value="100.0" />
		<!-- the radius in which stop locations are searched, given a start or target coordinate -->
		<param name="searchRadius" value="1000.0" />
	</module>
	<module name="travelTimeCalculator" >
		<!-- (only for backwards compatibility; only used if separateModes==false && + filterModes==true)  Transport modes that will be respected by the travel time collector. 'car' is default which includes also buses from the pt simulation module. -->
		<param name="analyzedModes" value="car" />
		<param name="calculateLinkToLinkTravelTimes" value="false" />
		<param name="calculateLinkTravelTimes" value="true" />
		<!-- (only for backwards compatiblity; only used if separateModes==false)  Only modes included in analyzedModes are included. -->
		<param name="filterModes" value="false" />
		<!-- The lenght (in sec) of the time period that is splited into time bins; an additional time bin is created to aggregate all travel times collected after maxTime -->
		<param name="maxTime" value="108000" />
		<!-- (only for backwards compatibility) If false, link travel times are measured and aggregated over all vehicles using the link. -->
		<param name="separateModes" value="true" />
		<!-- How to deal with congested time bins that have no link entry events. `optimistic' assumes free speed (too optimistic); 'experimental_LastMile' is experimental and probably too pessimistic. -->
		<param name="travelTimeAggregator" value="optimistic" />
		<!-- The size of the time bin (in sec) into which the link travel times are aggregated for the router -->
		<param name="travelTimeBinSize" value="900.0" />
		<!-- How to deal with link entry times at different positions during the time bin. Currently supported: average, linearinterpolation -->
		<param name="travelTimeGetter" value="average" />
	</module>
	<module name="vehicles" >
		<param name="vehiclesFile" value="evehicles.xml" />
	</module>
	<module name="vspExperimental" >
		<!-- (do not use except of you have to) There was a problem with pt interaction scoring.  Some people solved it by overwriting the parameters of the pt interaction activity type.  Doing this now throws an Exception.  If you still insist on doing this, set the following to true. -->
		<param name="isAbleToOverwritePtInteractionParams" value="false" />
		<param name="isGeneratingBoardingDeniedEvent" value="false" />
		<!-- if an approximation of the opportunity cost of time is included into the radius calculation for location choice.`true' will be faster, but it is an approximation.  Default is `true'; `false' is available for backwards compatibility. -->
		<param name="isUsingOpportunityCostOfTimeForLocationChoice" value="true" />
		<param name="logitScaleParamForPlansRemoval" value="1.0" />
		<!-- Options: | ignore | info | warn | abort | .  When violating VSP defaults, this results in nothing, logfile infos, logfile warnings, or aborts.  Members of VSP should use `abort' or talk to kai. -->
		<param name="vspDefaultsCheckingLevel" value="ignore" />
		<!-- if true then writes output_events in output directory.  default is `false'. Will only work when lastIteration is multiple of events writing interval -->
		<param name="writingOutputEvents" value="true" />
	</module>

</config>

2024-10-23T16:15:42,434  INFO ControllerUtils:102 Complete config dump done.
2024-10-23T16:15:42,434  INFO ControllerUtils:103 Checking consistency of config...
2024-10-23T16:15:42,434  INFO VspConfigConsistencyCheckerImpl:68 NOT running vsp config consistency check because vsp defaults checking level is set to IGNORE
2024-10-23T16:15:42,438  INFO ControllerUtils:105 Checking consistency of config done.
2024-10-23T16:15:42,451  WARN PrepareForSimImpl:265 'usePersonIdForMissingVehicleId' is deprecated. It will be removed soon.
2024-10-23T16:15:42,484  INFO SpeedyALTData:51 find dead ends...
2024-10-23T16:15:42,489  INFO SpeedyALTData:132 calculate landmarks...
2024-10-23T16:15:42,591  INFO SpeedyALTData:173 calculate min travelcost...
2024-10-23T16:15:42,600  INFO NetworkImpl:165  node # 1
2024-10-23T16:15:42,600  INFO NetworkImpl:165  node # 4
2024-10-23T16:15:42,600  INFO NetworkImpl:165  node # 16
2024-10-23T16:15:42,600  INFO NetworkImpl:165  node # 64
2024-10-23T16:15:42,601  INFO NetworkImpl:165  node # 256
2024-10-23T16:15:42,601  INFO NetworkImpl:165  node # 1024
2024-10-23T16:15:42,602  INFO NetworkImpl:165  node # 4096
2024-10-23T16:15:42,608  INFO NetworkImpl:165  node # 16384
2024-10-23T16:15:42,612  INFO NetworkImpl:161  link # 1
2024-10-23T16:15:42,613  INFO NetworkImpl:161  link # 4
2024-10-23T16:15:42,613  INFO NetworkImpl:161  link # 16
2024-10-23T16:15:42,613  INFO NetworkImpl:161  link # 64
2024-10-23T16:15:42,614  INFO NetworkImpl:161  link # 256
2024-10-23T16:15:42,617  INFO NetworkImpl:161  link # 1024
2024-10-23T16:15:42,624  INFO NetworkImpl:161  link # 4096
2024-10-23T16:15:42,648  INFO NetworkImpl:161  link # 16384
2024-10-23T16:15:42,696  WARN RandomizingTimeDistanceTravelDisutilityFactory:113 There will be no routing randomness. The randomization of the travel disutility requires the monetary distance rate to be different than zero. Continuing anyway.
2024-10-23T16:15:42,697  WARN RandomizingTimeDistanceTravelDisutilityFactory:118 There will be no routing randomness. The randomization of the travel disutility requires the travel time cost rate to be different than zero. Continuing anyway.
2024-10-23T16:15:42,698  INFO RandomizingTimeDistanceTravelDisutilityFactory:86  sigma: 3.0; resulting normalization: 0.011108996538242306
2024-10-23T16:15:42,707  INFO SpeedyALTData:51 find dead ends...
2024-10-23T16:15:42,710  INFO SpeedyALTData:132 calculate landmarks...
2024-10-23T16:15:42,780  INFO SpeedyALTData:173 calculate min travelcost...
2024-10-23T16:15:42,801  INFO SpeedyALTData:51 find dead ends...
2024-10-23T16:15:42,802  INFO SpeedyALTData:132 calculate landmarks...
2024-10-23T16:15:42,855  INFO SpeedyALTData:173 calculate min travelcost...
2024-10-23T16:15:42,864  INFO RandomizingTimeDistanceTravelDisutilityFactory:86  sigma: 3.0; resulting normalization: 0.011108996538242306
2024-10-23T16:15:42,888  INFO NetworkImpl:419 building QuadTree for nodes: xrange(272699.3682123583,487124.6375843205); yrange(5686689.172939049,5901209.8346667765)
2024-10-23T16:15:42,923  INFO NetworkImpl:428 Building QuadTree took 0.046 seconds.
2024-10-23T16:15:42,936  INFO Counter:70 [PersonPrepareForSim] handled person # 1
2024-10-23T16:15:42,936  INFO Counter:70 [PersonPrepareForSim] handled person # 2
2024-10-23T16:15:42,942  INFO Counter:70 [PersonPrepareForSim] handled person # 4
2024-10-23T16:15:42,946  INFO Counter:70 [PersonPrepareForSim] handled person # 8
2024-10-23T16:15:42,978  INFO Counter:75 [PersonPrepareForSim] handled person # 15
2024-10-23T16:15:42,990  INFO AbstractController:136 ###################################################
2024-10-23T16:15:42,990  INFO AbstractController:137 ### ITERATION 0 BEGINS
2024-10-23T16:15:42,991  INFO ControlerListenerManagerImpl:156 calling notifyIterationStarts on org.matsim.analysis.LegHistogramListener with priority 0.0
2024-10-23T16:15:42,991  INFO ControlerListenerManagerImpl:156 calling notifyIterationStarts on org.matsim.analysis.LinkStatsControlerListener with priority 0.0
2024-10-23T16:15:42,991  INFO ControlerListenerManagerImpl:156 calling notifyIterationStarts on org.matsim.core.replanning.ReplanningContextImpl with priority 0.0
2024-10-23T16:15:42,991  INFO ControlerListenerManagerImpl:156 calling notifyIterationStarts on org.matsim.core.scoring.ScoringFunctionsForPopulation$$Lambda/0x00007feef036a758 with priority 0.0
2024-10-23T16:15:43,000  INFO ControlerListenerManagerImpl:156 calling notifyIterationStarts on org.matsim.core.scoring.ExperiencedPlansServiceImpl$1 with priority 0.0
2024-10-23T16:15:43,000  INFO ControlerListenerManagerImpl:159 [it.0] all ControlerIterationStartsListeners called.
2024-10-23T16:15:43,001  INFO ControlerListenerManagerImpl:242 calling notifyBeforeMobsim on org.matsim.core.controler.corelisteners.EventsHandlingImpl with priority 0.0
2024-10-23T16:15:43,001  INFO EventsManagerImpl:168 resetting Event-Handlers
2024-10-23T16:15:43,001  INFO EventsManagerImpl:175   org.matsim.core.trafficmonitoring.TravelTimeCalculator
2024-10-23T16:15:43,004  INFO EventsManagerImpl:175   org.matsim.analysis.VolumesAnalyzer
2024-10-23T16:15:43,004  INFO EventsManagerImpl:175   org.matsim.core.scoring.ScoringFunctionsForPopulation
2024-10-23T16:15:43,004  INFO EventsManagerImpl:175   org.matsim.analysis.LegHistogram
2024-10-23T16:15:43,004  INFO EventsManagerImpl:175   org.matsim.analysis.CalcLegTimes
2024-10-23T16:15:43,004  INFO EventsManagerImpl:175   org.matsim.contrib.ev.charging.ChargingEventSequenceCollector
2024-10-23T16:15:43,004  INFO EventsManagerImpl:175   org.matsim.contrib.ev.stats.ChargerPowerTimeProfileCalculator
2024-10-23T16:15:43,005  INFO EventsManagerImpl:138 adding Event-Handler: org.matsim.core.events.algorithms.EventWriterXML
2024-10-23T16:15:43,005  INFO EventsManagerImpl:144   org.matsim.core.events.algorithms.EventWriter
2024-10-23T16:15:43,006  INFO EventsManagerImpl:144   org.matsim.core.events.handler.BasicEventHandler
2024-10-23T16:15:43,006  INFO EventsManagerImpl:205     > org.matsim.api.core.v01.events.Event
2024-10-23T16:15:43,006  INFO EventsManagerImpl:154 
2024-10-23T16:15:43,006  INFO EventsManagerImpl:138 adding Event-Handler: org.matsim.core.events.algorithms.EventWriterXML
2024-10-23T16:15:43,006  INFO EventsManagerImpl:144   org.matsim.core.events.algorithms.EventWriter
2024-10-23T16:15:43,006  INFO EventsManagerImpl:144   org.matsim.core.events.handler.BasicEventHandler
2024-10-23T16:15:43,006  INFO EventsManagerImpl:205     > org.matsim.api.core.v01.events.Event
2024-10-23T16:15:43,006  INFO EventsManagerImpl:154 
2024-10-23T16:15:43,006  INFO ControlerListenerManagerImpl:242 calling notifyBeforeMobsim on org.matsim.core.controler.corelisteners.PlansDumpingImpl with priority 0.0
2024-10-23T16:15:43,006  INFO PlansDumpingImpl:77 dumping plans...
2024-10-23T16:15:43,024  INFO Counter:70 [PopulationWriter] dumped person # 1
2024-10-23T16:15:43,024  INFO Counter:70 [PopulationWriter] dumped person # 2
2024-10-23T16:15:43,024  INFO Counter:70 [PopulationWriter] dumped person # 4
2024-10-23T16:15:43,024  INFO Counter:70 [PopulationWriter] dumped person # 8
2024-10-23T16:15:43,029  INFO Counter:70 [ParallelPopulationWriterV6] dumped person # 1
2024-10-23T16:15:43,029  INFO Counter:70 [ParallelPopulationWriterV6] dumped person # 2
2024-10-23T16:15:43,030  INFO Counter:70 [ParallelPopulationWriterV6] dumped person # 4
2024-10-23T16:15:43,032  INFO Counter:70 [ParallelPopulationWriterV6] dumped person # 8
2024-10-23T16:15:43,034  INFO Counter:75 [ParallelPopulationWriterV6] dumped person # 15
2024-10-23T16:15:43,034  INFO PopulationWriter:150 Population written to: ./scenarios/originalev/evexample/ITERS/it.0/0.plans.xml.gz
2024-10-23T16:15:43,035  INFO Counter:75 [PopulationWriter] dumped person # 15
2024-10-23T16:15:43,036  INFO PlansDumpingImpl:94 finished plans dump.
2024-10-23T16:15:43,036  INFO ControlerListenerManagerImpl:248 calling notifyBeforeMobsim on org.matsim.core.population.VspPlansCleaner with priority 0.0
2024-10-23T16:15:43,036  INFO ControlerListenerManagerImpl:251 [it.0] all ControlerBeforeMobsimListeners called.
2024-10-23T16:15:43,040  INFO RandomizingTimeDistanceTravelDisutilityFactory:86  sigma: 3.0; resulting normalization: 0.011108996538242306
2024-10-23T16:15:43,045  INFO RandomizingTimeDistanceTravelDisutilityFactory:86  sigma: 3.0; resulting normalization: 0.011108996538242306
2024-10-23T16:15:43,050  INFO Counter:70 [PersonPrepareForSim] handled person # 1
2024-10-23T16:15:43,050  INFO Counter:70 [PersonPrepareForSim] handled person # 2
2024-10-23T16:15:43,050  INFO Counter:70 [PersonPrepareForSim] handled person # 4
2024-10-23T16:15:43,051  INFO Counter:70 [PersonPrepareForSim] handled person # 8
2024-10-23T16:15:43,051  INFO Counter:75 [PersonPrepareForSim] handled person # 15
2024-10-23T16:15:43,108  INFO MobsimListenerManager:50 calling addQueueSimulationListener
2024-10-23T16:15:43,109  INFO MobsimListenerManager:54   assigned class org.matsim.core.mobsim.framework.listeners.MobsimListener to interface org.matsim.core.mobsim.framework.listeners.MobsimAfterSimStepListener
2024-10-23T16:15:43,109  INFO MobsimListenerManager:54   assigned class org.matsim.core.mobsim.framework.listeners.MobsimListener to interface org.matsim.vis.snapshotwriters.SnapshotWriterManager
2024-10-23T16:15:43,109  INFO MobsimListenerManager:54   assigned class org.matsim.core.mobsim.framework.listeners.MobsimListener to interface org.matsim.core.mobsim.framework.listeners.MobsimListener
2024-10-23T16:15:43,109  INFO MobsimListenerManager:54   assigned class org.matsim.core.mobsim.framework.listeners.MobsimListener to interface org.matsim.core.mobsim.framework.listeners.MobsimBeforeCleanupListener
2024-10-23T16:15:43,109  INFO MobsimListenerManager:54   assigned class org.matsim.core.mobsim.framework.listeners.MobsimListener to interface org.matsim.core.mobsim.framework.listeners.MobsimInitializedListener
2024-10-23T16:15:43,113  INFO EventsManagerImpl:138 adding Event-Handler: org.matsim.contrib.ev.discharging.DriveDischargingHandler
2024-10-23T16:15:43,113  INFO EventsManagerImpl:144   org.matsim.api.core.v01.events.handler.LinkLeaveEventHandler
2024-10-23T16:15:43,113  INFO EventsManagerImpl:205     > org.matsim.api.core.v01.events.LinkLeaveEvent
2024-10-23T16:15:43,113  INFO EventsManagerImpl:144   org.matsim.api.core.v01.events.handler.VehicleEntersTrafficEventHandler
2024-10-23T16:15:43,113  INFO EventsManagerImpl:205     > org.matsim.api.core.v01.events.VehicleEntersTrafficEvent
2024-10-23T16:15:43,113  INFO EventsManagerImpl:144   org.matsim.api.core.v01.events.handler.VehicleLeavesTrafficEventHandler
2024-10-23T16:15:43,113  INFO EventsManagerImpl:205     > org.matsim.api.core.v01.events.VehicleLeavesTrafficEvent
2024-10-23T16:15:43,113  INFO EventsManagerImpl:144   org.matsim.core.events.MobsimScopeEventHandler
2024-10-23T16:15:43,113  INFO EventsManagerImpl:154 
2024-10-23T16:15:43,113  INFO EventsManagerImpl:138 adding Event-Handler: org.matsim.contrib.ev.discharging.DriveDischargingHandler
2024-10-23T16:15:43,113  INFO EventsManagerImpl:144   org.matsim.api.core.v01.events.handler.LinkLeaveEventHandler
2024-10-23T16:15:43,113  INFO EventsManagerImpl:205     > org.matsim.api.core.v01.events.LinkLeaveEvent
2024-10-23T16:15:43,113  INFO EventsManagerImpl:144   org.matsim.api.core.v01.events.handler.VehicleEntersTrafficEventHandler
2024-10-23T16:15:43,113  INFO EventsManagerImpl:205     > org.matsim.api.core.v01.events.VehicleEntersTrafficEvent
2024-10-23T16:15:43,113  INFO EventsManagerImpl:144   org.matsim.api.core.v01.events.handler.VehicleLeavesTrafficEventHandler
2024-10-23T16:15:43,113  INFO EventsManagerImpl:205     > org.matsim.api.core.v01.events.VehicleLeavesTrafficEvent
2024-10-23T16:15:43,113  INFO EventsManagerImpl:144   org.matsim.core.events.MobsimScopeEventHandler
2024-10-23T16:15:43,113  INFO EventsManagerImpl:154 
2024-10-23T16:15:43,113  INFO EventsManagerImpl:138 adding Event-Handler: org.matsim.contrib.ev.discharging.IdleDischargingHandler
2024-10-23T16:15:43,113  INFO EventsManagerImpl:144   org.matsim.api.core.v01.events.handler.ActivityStartEventHandler
2024-10-23T16:15:43,113  INFO EventsManagerImpl:205     > org.matsim.api.core.v01.events.ActivityStartEvent
2024-10-23T16:15:43,113  INFO EventsManagerImpl:144   org.matsim.api.core.v01.events.handler.ActivityEndEventHandler
2024-10-23T16:15:43,113  INFO EventsManagerImpl:205     > org.matsim.api.core.v01.events.ActivityEndEvent
2024-10-23T16:15:43,114  INFO EventsManagerImpl:144   org.matsim.core.events.MobsimScopeEventHandler
2024-10-23T16:15:43,114  INFO EventsManagerImpl:154 
2024-10-23T16:15:43,114  INFO EventsManagerImpl:138 adding Event-Handler: org.matsim.contrib.ev.discharging.IdleDischargingHandler
2024-10-23T16:15:43,114  INFO EventsManagerImpl:144   org.matsim.api.core.v01.events.handler.ActivityStartEventHandler
2024-10-23T16:15:43,114  INFO EventsManagerImpl:205     > org.matsim.api.core.v01.events.ActivityStartEvent
2024-10-23T16:15:43,114  INFO EventsManagerImpl:144   org.matsim.api.core.v01.events.handler.ActivityEndEventHandler
2024-10-23T16:15:43,114  INFO EventsManagerImpl:205     > org.matsim.api.core.v01.events.ActivityEndEvent
2024-10-23T16:15:43,114  INFO EventsManagerImpl:144   org.matsim.core.events.MobsimScopeEventHandler
2024-10-23T16:15:43,114  INFO EventsManagerImpl:154 
2024-10-23T16:15:43,114  INFO EventsManagerImpl:138 adding Event-Handler: org.matsim.contrib.ev.stats.EnergyConsumptionCollector
2024-10-23T16:15:43,114  INFO EventsManagerImpl:144   org.matsim.contrib.ev.discharging.DrivingEnergyConsumptionEventHandler
2024-10-23T16:15:43,114  INFO EventsManagerImpl:205     > org.matsim.contrib.ev.discharging.DrivingEnergyConsumptionEvent
2024-10-23T16:15:43,114  INFO EventsManagerImpl:144   org.matsim.core.events.MobsimScopeEventHandler
2024-10-23T16:15:43,114  INFO EventsManagerImpl:154 
2024-10-23T16:15:43,114  INFO EventsManagerImpl:138 adding Event-Handler: org.matsim.contrib.ev.stats.EnergyConsumptionCollector
2024-10-23T16:15:43,114  INFO EventsManagerImpl:144   org.matsim.contrib.ev.discharging.DrivingEnergyConsumptionEventHandler
2024-10-23T16:15:43,114  INFO EventsManagerImpl:205     > org.matsim.contrib.ev.discharging.DrivingEnergyConsumptionEvent
2024-10-23T16:15:43,114  INFO EventsManagerImpl:144   org.matsim.core.events.MobsimScopeEventHandler
2024-10-23T16:15:43,114  INFO EventsManagerImpl:154 
2024-10-23T16:15:43,114  INFO EventsManagerImpl:138 adding Event-Handler: org.matsim.contrib.ev.charging.VehicleChargingHandler
2024-10-23T16:15:43,114  INFO EventsManagerImpl:144   org.matsim.api.core.v01.events.handler.ActivityStartEventHandler
2024-10-23T16:15:43,114  INFO EventsManagerImpl:205     > org.matsim.api.core.v01.events.ActivityStartEvent
2024-10-23T16:15:43,114  INFO EventsManagerImpl:144   org.matsim.api.core.v01.events.handler.ActivityEndEventHandler
2024-10-23T16:15:43,114  INFO EventsManagerImpl:205     > org.matsim.api.core.v01.events.ActivityEndEvent
2024-10-23T16:15:43,114  INFO EventsManagerImpl:144   org.matsim.api.core.v01.events.handler.PersonLeavesVehicleEventHandler
2024-10-23T16:15:43,114  INFO EventsManagerImpl:205     > org.matsim.api.core.v01.events.PersonLeavesVehicleEvent
2024-10-23T16:15:43,114  INFO EventsManagerImpl:144   org.matsim.contrib.ev.charging.QueuedAtChargerEventHandler
2024-10-23T16:15:43,114  INFO EventsManagerImpl:205     > org.matsim.contrib.ev.charging.QueuedAtChargerEvent
2024-10-23T16:15:43,114  INFO EventsManagerImpl:144   org.matsim.contrib.ev.charging.ChargingStartEventHandler
2024-10-23T16:15:43,114  INFO EventsManagerImpl:205     > org.matsim.contrib.ev.charging.ChargingStartEvent
2024-10-23T16:15:43,115  INFO EventsManagerImpl:144   org.matsim.contrib.ev.charging.ChargingEndEventHandler
2024-10-23T16:15:43,115  INFO EventsManagerImpl:205     > org.matsim.contrib.ev.charging.ChargingEndEvent
2024-10-23T16:15:43,115  INFO EventsManagerImpl:144   org.matsim.contrib.ev.charging.QuitQueueAtChargerEventHandler
2024-10-23T16:15:43,115  INFO EventsManagerImpl:205     > org.matsim.contrib.ev.charging.QuitQueueAtChargerEvent
2024-10-23T16:15:43,115  INFO EventsManagerImpl:144   org.matsim.core.events.MobsimScopeEventHandler
2024-10-23T16:15:43,115  INFO EventsManagerImpl:154 
2024-10-23T16:15:43,115  INFO EventsManagerImpl:138 adding Event-Handler: org.matsim.contrib.ev.charging.VehicleChargingHandler
2024-10-23T16:15:43,115  INFO EventsManagerImpl:144   org.matsim.api.core.v01.events.handler.ActivityStartEventHandler
2024-10-23T16:15:43,115  INFO EventsManagerImpl:205     > org.matsim.api.core.v01.events.ActivityStartEvent
2024-10-23T16:15:43,115  INFO EventsManagerImpl:144   org.matsim.api.core.v01.events.handler.ActivityEndEventHandler
2024-10-23T16:15:43,115  INFO EventsManagerImpl:205     > org.matsim.api.core.v01.events.ActivityEndEvent
2024-10-23T16:15:43,115  INFO EventsManagerImpl:144   org.matsim.api.core.v01.events.handler.PersonLeavesVehicleEventHandler
2024-10-23T16:15:43,115  INFO EventsManagerImpl:205     > org.matsim.api.core.v01.events.PersonLeavesVehicleEvent
2024-10-23T16:15:43,115  INFO EventsManagerImpl:144   org.matsim.contrib.ev.charging.QueuedAtChargerEventHandler
2024-10-23T16:15:43,115  INFO EventsManagerImpl:205     > org.matsim.contrib.ev.charging.QueuedAtChargerEvent
2024-10-23T16:15:43,115  INFO EventsManagerImpl:144   org.matsim.contrib.ev.charging.ChargingStartEventHandler
2024-10-23T16:15:43,115  INFO EventsManagerImpl:205     > org.matsim.contrib.ev.charging.ChargingStartEvent
2024-10-23T16:15:43,115  INFO EventsManagerImpl:144   org.matsim.contrib.ev.charging.ChargingEndEventHandler
2024-10-23T16:15:43,115  INFO EventsManagerImpl:205     > org.matsim.contrib.ev.charging.ChargingEndEvent
2024-10-23T16:15:43,115  INFO EventsManagerImpl:144   org.matsim.contrib.ev.charging.QuitQueueAtChargerEventHandler
2024-10-23T16:15:43,115  INFO EventsManagerImpl:205     > org.matsim.contrib.ev.charging.QuitQueueAtChargerEvent
2024-10-23T16:15:43,115  INFO EventsManagerImpl:144   org.matsim.core.events.MobsimScopeEventHandler
2024-10-23T16:15:43,115  INFO EventsManagerImpl:154 
2024-10-23T16:15:43,116  INFO QSimProvider:131 Added MobsimEngine class org.matsim.core.mobsim.qsim.ActivityEngineDefaultImpl
2024-10-23T16:15:43,116  INFO QSimProvider:137 Added Activityhandler class org.matsim.core.mobsim.qsim.ActivityEngineDefaultImpl
2024-10-23T16:15:43,169  WARN QueueWithBuffer:500 Link 30609511_0 too small: enlarge storage capacity from: 9.525470786238156 Vehicles to: 10.716154634517927 Vehicles.  This is not fatal, but modifies the traffic flow dynamics.
2024-10-23T16:15:43,169  WARN QueueWithBuffer:500 Link 30609511_0_r too small: enlarge storage capacity from: 9.525470786238156 Vehicles to: 10.716154634517927 Vehicles.  This is not fatal, but modifies the traffic flow dynamics.
2024-10-23T16:15:43,173  WARN QueueWithBuffer:500 Link 317587875_0 too small: enlarge storage capacity from: 3.738354875818572 Vehicles to: 4.205649235295893 Vehicles.  This is not fatal, but modifies the traffic flow dynamics.
2024-10-23T16:15:43,173  WARN QueueWithBuffer:500 Link 317587875_0_r too small: enlarge storage capacity from: 3.738354875818572 Vehicles to: 4.205649235295893 Vehicles.  This is not fatal, but modifies the traffic flow dynamics.
2024-10-23T16:15:43,230  INFO QSimProvider:143 Added DepartureHandler class org.matsim.core.mobsim.qsim.qnetsimengine.VehicularDepartureHandler
2024-10-23T16:15:43,230  INFO QSimProvider:131 Added MobsimEngine class org.matsim.core.mobsim.qsim.qnetsimengine.QNetsimEngineWithThreadpool
2024-10-23T16:15:43,230  INFO QSimProvider:131 Added MobsimEngine class org.matsim.core.mobsim.qsim.DefaultTeleportationEngine
2024-10-23T16:15:43,230  INFO QSimProvider:143 Added DepartureHandler class org.matsim.core.mobsim.qsim.DefaultTeleportationEngine
2024-10-23T16:15:43,230  INFO QSimProvider:149 Added AgentSource class org.matsim.core.mobsim.qsim.agents.PopulationAgentSource
2024-10-23T16:15:43,230  INFO MobsimListenerManager:50 calling addQueueSimulationListener
2024-10-23T16:15:43,230  INFO MobsimListenerManager:54   assigned class org.matsim.core.mobsim.framework.listeners.MobsimListener to interface org.matsim.core.mobsim.framework.listeners.MobsimListener
2024-10-23T16:15:43,230  INFO MobsimListenerManager:54   assigned class org.matsim.core.mobsim.framework.listeners.MobsimListener to interface org.matsim.core.mobsim.qsim.messagequeueengine.MessageQueueEngine
2024-10-23T16:15:43,230  INFO MobsimListenerManager:54   assigned class org.matsim.core.mobsim.framework.listeners.MobsimListener to interface org.matsim.core.mobsim.framework.listeners.MobsimBeforeSimStepListener
2024-10-23T16:15:43,230  INFO QSimProvider:155 Added MobsimListener class org.matsim.core.mobsim.qsim.messagequeueengine.MessageQueueEngine
2024-10-23T16:15:43,230  INFO MobsimListenerManager:50 calling addQueueSimulationListener
2024-10-23T16:15:43,230  INFO MobsimListenerManager:54   assigned class org.matsim.core.mobsim.framework.listeners.MobsimListener to interface org.matsim.core.mobsim.framework.listeners.MobsimAfterSimStepListener
2024-10-23T16:15:43,230  INFO MobsimListenerManager:54   assigned class org.matsim.core.mobsim.framework.listeners.MobsimListener to interface org.matsim.contrib.ev.charging.ChargingHandler
2024-10-23T16:15:43,230  INFO MobsimListenerManager:54   assigned class org.matsim.core.mobsim.framework.listeners.MobsimListener to interface org.matsim.core.mobsim.framework.listeners.MobsimListener
2024-10-23T16:15:43,230  INFO QSimProvider:155 Added MobsimListener class org.matsim.contrib.ev.charging.ChargingHandler
2024-10-23T16:15:43,231  INFO QSimProvider:131 Added MobsimEngine class org.matsim.contrib.ev.discharging.DriveDischargingHandler
2024-10-23T16:15:43,231  INFO MobsimListenerManager:50 calling addQueueSimulationListener
2024-10-23T16:15:43,231  INFO MobsimListenerManager:54   assigned class org.matsim.core.mobsim.framework.listeners.MobsimListener to interface org.matsim.core.mobsim.framework.listeners.MobsimAfterSimStepListener
2024-10-23T16:15:43,231  INFO MobsimListenerManager:54   assigned class org.matsim.core.mobsim.framework.listeners.MobsimListener to interface org.matsim.core.mobsim.framework.listeners.MobsimListener
2024-10-23T16:15:43,231  INFO MobsimListenerManager:54   assigned class org.matsim.core.mobsim.framework.listeners.MobsimListener to interface org.matsim.contrib.ev.discharging.IdleDischargingHandler
2024-10-23T16:15:43,231  INFO QSimProvider:155 Added MobsimListener class org.matsim.contrib.ev.discharging.IdleDischargingHandler
2024-10-23T16:15:43,232  INFO MobsimListenerManager:50 calling addQueueSimulationListener
2024-10-23T16:15:43,232  INFO MobsimListenerManager:54   assigned class org.matsim.core.mobsim.framework.listeners.MobsimListener to interface org.matsim.contrib.common.timeprofile.TimeProfileCollector
2024-10-23T16:15:43,232  INFO MobsimListenerManager:54   assigned class org.matsim.core.mobsim.framework.listeners.MobsimListener to interface org.matsim.core.mobsim.framework.listeners.MobsimListener
2024-10-23T16:15:43,232  INFO MobsimListenerManager:54   assigned class org.matsim.core.mobsim.framework.listeners.MobsimListener to interface org.matsim.core.mobsim.framework.listeners.MobsimBeforeCleanupListener
2024-10-23T16:15:43,232  INFO MobsimListenerManager:54   assigned class org.matsim.core.mobsim.framework.listeners.MobsimListener to interface org.matsim.core.mobsim.framework.listeners.MobsimBeforeSimStepListener
2024-10-23T16:15:43,232  INFO QSimProvider:155 Added MobsimListener class org.matsim.contrib.common.timeprofile.TimeProfileCollector
2024-10-23T16:15:43,233  INFO MobsimListenerManager:50 calling addQueueSimulationListener
2024-10-23T16:15:43,233  INFO MobsimListenerManager:54   assigned class org.matsim.core.mobsim.framework.listeners.MobsimListener to interface org.matsim.contrib.common.timeprofile.TimeProfileCollector
2024-10-23T16:15:43,233  INFO MobsimListenerManager:54   assigned class org.matsim.core.mobsim.framework.listeners.MobsimListener to interface org.matsim.core.mobsim.framework.listeners.MobsimListener
2024-10-23T16:15:43,233  INFO MobsimListenerManager:54   assigned class org.matsim.core.mobsim.framework.listeners.MobsimListener to interface org.matsim.core.mobsim.framework.listeners.MobsimBeforeCleanupListener
2024-10-23T16:15:43,233  INFO MobsimListenerManager:54   assigned class org.matsim.core.mobsim.framework.listeners.MobsimListener to interface org.matsim.core.mobsim.framework.listeners.MobsimBeforeSimStepListener
2024-10-23T16:15:43,233  INFO QSimProvider:155 Added MobsimListener class org.matsim.contrib.common.timeprofile.TimeProfileCollector
2024-10-23T16:15:43,233  INFO MobsimListenerManager:50 calling addQueueSimulationListener
2024-10-23T16:15:43,233  INFO MobsimListenerManager:54   assigned class org.matsim.core.mobsim.framework.listeners.MobsimListener to interface org.matsim.contrib.common.timeprofile.TimeProfileCollector
2024-10-23T16:15:43,233  INFO MobsimListenerManager:54   assigned class org.matsim.core.mobsim.framework.listeners.MobsimListener to interface org.matsim.core.mobsim.framework.listeners.MobsimListener
2024-10-23T16:15:43,233  INFO MobsimListenerManager:54   assigned class org.matsim.core.mobsim.framework.listeners.MobsimListener to interface org.matsim.core.mobsim.framework.listeners.MobsimBeforeCleanupListener
2024-10-23T16:15:43,234  INFO MobsimListenerManager:54   assigned class org.matsim.core.mobsim.framework.listeners.MobsimListener to interface org.matsim.core.mobsim.framework.listeners.MobsimBeforeSimStepListener
2024-10-23T16:15:43,234  INFO QSimProvider:155 Added MobsimListener class org.matsim.contrib.common.timeprofile.TimeProfileCollector
2024-10-23T16:15:43,234  INFO MobsimListenerManager:50 calling addQueueSimulationListener
2024-10-23T16:15:43,234  INFO MobsimListenerManager:54   assigned class org.matsim.core.mobsim.framework.listeners.MobsimListener to interface org.matsim.core.mobsim.framework.listeners.MobsimListener
2024-10-23T16:15:43,234  INFO MobsimListenerManager:54   assigned class org.matsim.core.mobsim.framework.listeners.MobsimListener to interface org.matsim.contrib.ev.stats.ChargerOccupancyXYDataCollector
2024-10-23T16:15:43,234  INFO MobsimListenerManager:54   assigned class org.matsim.core.mobsim.framework.listeners.MobsimListener to interface org.matsim.core.mobsim.framework.listeners.MobsimBeforeCleanupListener
2024-10-23T16:15:43,234  INFO MobsimListenerManager:54   assigned class org.matsim.core.mobsim.framework.listeners.MobsimListener to interface org.matsim.core.mobsim.framework.listeners.MobsimInitializedListener
2024-10-23T16:15:43,234  INFO MobsimListenerManager:54   assigned class org.matsim.core.mobsim.framework.listeners.MobsimListener to interface org.matsim.core.mobsim.framework.listeners.MobsimBeforeSimStepListener
2024-10-23T16:15:43,234  INFO QSimProvider:155 Added MobsimListener class org.matsim.contrib.ev.stats.ChargerOccupancyXYDataCollector
2024-10-23T16:15:43,236  INFO MobsimListenerManager:50 calling addQueueSimulationListener
2024-10-23T16:15:43,236  INFO MobsimListenerManager:54   assigned class org.matsim.core.mobsim.framework.listeners.MobsimListener to interface org.matsim.contrib.common.timeprofile.TimeProfileCollector
2024-10-23T16:15:43,236  INFO MobsimListenerManager:54   assigned class org.matsim.core.mobsim.framework.listeners.MobsimListener to interface org.matsim.core.mobsim.framework.listeners.MobsimListener
2024-10-23T16:15:43,236  INFO MobsimListenerManager:54   assigned class org.matsim.core.mobsim.framework.listeners.MobsimListener to interface org.matsim.core.mobsim.framework.listeners.MobsimBeforeCleanupListener
2024-10-23T16:15:43,236  INFO MobsimListenerManager:54   assigned class org.matsim.core.mobsim.framework.listeners.MobsimListener to interface org.matsim.core.mobsim.framework.listeners.MobsimBeforeSimStepListener
2024-10-23T16:15:43,236  INFO QSimProvider:155 Added MobsimListener class org.matsim.contrib.common.timeprofile.TimeProfileCollector
2024-10-23T16:15:43,236  INFO MobsimListenerManager:50 calling addQueueSimulationListener
2024-10-23T16:15:43,236  INFO MobsimListenerManager:54   assigned class org.matsim.core.mobsim.framework.listeners.MobsimListener to interface org.matsim.core.mobsim.framework.listeners.MobsimListener
2024-10-23T16:15:43,236  INFO MobsimListenerManager:54   assigned class org.matsim.core.mobsim.framework.listeners.MobsimListener to interface org.matsim.core.mobsim.framework.listeners.MobsimBeforeCleanupListener
2024-10-23T16:15:43,236  INFO MobsimListenerManager:54   assigned class org.matsim.core.mobsim.framework.listeners.MobsimListener to interface org.matsim.contrib.ev.stats.EnergyConsumptionCollector
2024-10-23T16:15:43,236  INFO QSimProvider:155 Added MobsimListener class org.matsim.contrib.ev.stats.EnergyConsumptionCollector
2024-10-23T16:15:43,239  INFO PopulationUtils:1255 adding scenario element for allpersons container
2024-10-23T16:15:43,239  INFO PopulationImpl:107  person # 1
2024-10-23T16:15:43,240  INFO PopulationImpl:107  person # 4
2024-10-23T16:15:43,240  INFO VehicleUtils:398 adding scenario element for allvehicles container
2024-10-23T16:15:43,240  INFO Counter:70 [VehiclesImpl] added vehicle # 1
2024-10-23T16:15:43,240  INFO Counter:70 [VehiclesImpl] added vehicle # 2
2024-10-23T16:15:43,240  INFO Counter:70 [VehiclesImpl] added vehicle # 4
2024-10-23T16:15:43,240  INFO Counter:70 [VehiclesImpl] added vehicle # 8
2024-10-23T16:15:43,271  INFO AbstractQNetsimEngine:426 Assigned 24432 nodes and 39275 links to QSimEngineRunner #0
2024-10-23T16:15:43,278  INFO AbstractQNetsimEngine:364 SIMULATION (QNetsimEngine) AT 00:00:00 : #links=0 #nodes=0
2024-10-23T16:15:43,281  INFO QSim:566 SIMULATION (NEW QSim) AT 00:00:00 : #Veh=15 lost=0 simT=0.0s realT=0s; (s/r): 0.0
2024-10-23T16:15:43,391  INFO AbstractQNetsimEngine:364 SIMULATION (QNetsimEngine) AT 01:00:00 : #links=0 #nodes=0
2024-10-23T16:15:43,391  INFO QSim:566 SIMULATION (NEW QSim) AT 01:00:00 : #Veh=15 lost=0 simT=3600.0s realT=0s; (s/r): Infinity
2024-10-23T16:15:43,474  INFO AbstractQNetsimEngine:364 SIMULATION (QNetsimEngine) AT 02:00:00 : #links=0 #nodes=0
2024-10-23T16:15:43,474  INFO QSim:566 SIMULATION (NEW QSim) AT 02:00:00 : #Veh=15 lost=0 simT=7200.0s realT=0s; (s/r): Infinity
2024-10-23T16:15:43,558  INFO AbstractQNetsimEngine:364 SIMULATION (QNetsimEngine) AT 03:00:00 : #links=0 #nodes=0
2024-10-23T16:15:43,558  INFO QSim:566 SIMULATION (NEW QSim) AT 03:00:00 : #Veh=15 lost=0 simT=10800.0s realT=0s; (s/r): Infinity
2024-10-23T16:15:43,644  INFO AbstractQNetsimEngine:364 SIMULATION (QNetsimEngine) AT 04:00:00 : #links=0 #nodes=0
2024-10-23T16:15:43,645  INFO QSim:566 SIMULATION (NEW QSim) AT 04:00:00 : #Veh=15 lost=0 simT=14400.0s realT=0s; (s/r): Infinity
2024-10-23T16:15:43,741  INFO AbstractQNetsimEngine:364 SIMULATION (QNetsimEngine) AT 05:00:00 : #links=0 #nodes=0
2024-10-23T16:15:43,741  INFO QSim:566 SIMULATION (NEW QSim) AT 05:00:00 : #Veh=15 lost=0 simT=18000.0s realT=0s; (s/r): Infinity
2024-10-23T16:15:43,830  INFO AbstractQNetsimEngine:364 SIMULATION (QNetsimEngine) AT 06:00:00 : #links=0 #nodes=0
2024-10-23T16:15:43,831  INFO QSim:566 SIMULATION (NEW QSim) AT 06:00:00 : #Veh=15 lost=0 simT=21600.0s realT=0s; (s/r): Infinity
2024-10-23T16:15:43,917  INFO AbstractQNetsimEngine:364 SIMULATION (QNetsimEngine) AT 07:00:00 : #links=0 #nodes=0
2024-10-23T16:15:43,917  INFO QSim:566 SIMULATION (NEW QSim) AT 07:00:00 : #Veh=15 lost=0 simT=25200.0s realT=0s; (s/r): Infinity
2024-10-23T16:15:44,011  INFO EventsManagerImpl:115  event # 1
2024-10-23T16:15:44,012  INFO AbstractQNetsimEngine:364 SIMULATION (QNetsimEngine) AT 08:00:00 : #links=0 #nodes=15
2024-10-23T16:15:44,012  INFO QSim:566 SIMULATION (NEW QSim) AT 08:00:00 : #Veh=15 lost=0 simT=28800.0s realT=0s; (s/r): Infinity
2024-10-23T16:15:44,013  INFO EventsManagerImpl:115  event # 4
2024-10-23T16:15:44,013  INFO EventsManagerImpl:115  event # 16
2024-10-23T16:15:44,016  INFO EventsManagerImpl:115  event # 64
2024-10-23T16:15:44,026  INFO EventsManagerImpl:115  event # 256
2024-10-23T16:15:44,046  INFO EventsManagerImpl:115  event # 1024
2024-10-23T16:15:44,102  INFO EventsManagerImpl:115  event # 4096
2024-10-23T16:15:44,222  INFO AbstractQNetsimEngine:364 SIMULATION (QNetsimEngine) AT 09:00:00 : #links=8 #nodes=3
[...]
2024-10-23T16:15:54,240  INFO QSimProvider:155 Added MobsimListener class org.matsim.contrib.ev.stats.ChargerOccupancyXYDataCollector
2024-10-23T16:15:54,240  INFO MobsimListenerManager:50 calling addQueueSimulationListener
2024-10-23T16:15:54,240  INFO MobsimListenerManager:54   assigned class org.matsim.core.mobsim.framework.listeners.MobsimListener to interface org.matsim.contrib.common.timeprofile.TimeProfileCollector
2024-10-23T16:15:54,240  INFO MobsimListenerManager:54   assigned class org.matsim.core.mobsim.framework.listeners.MobsimListener to interface org.matsim.core.mobsim.framework.listeners.MobsimListener
2024-10-23T16:15:54,240  INFO MobsimListenerManager:54   assigned class org.matsim.core.mobsim.framework.listeners.MobsimListener to interface org.matsim.core.mobsim.framework.listeners.MobsimBeforeCleanupListener
2024-10-23T16:15:54,240  INFO MobsimListenerManager:54   assigned class org.matsim.core.mobsim.framework.listeners.MobsimListener to interface org.matsim.core.mobsim.framework.listeners.MobsimBeforeSimStepListener
2024-10-23T16:15:54,240  INFO QSimProvider:155 Added MobsimListener class org.matsim.contrib.common.timeprofile.TimeProfileCollector
2024-10-23T16:15:54,240  INFO MobsimListenerManager:50 calling addQueueSimulationListener
2024-10-23T16:15:54,240  INFO MobsimListenerManager:54   assigned class org.matsim.core.mobsim.framework.listeners.MobsimListener to interface org.matsim.core.mobsim.framework.listeners.MobsimListener
2024-10-23T16:15:54,240  INFO MobsimListenerManager:54   assigned class org.matsim.core.mobsim.framework.listeners.MobsimListener to interface org.matsim.core.mobsim.framework.listeners.MobsimBeforeCleanupListener
2024-10-23T16:15:54,240  INFO MobsimListenerManager:54   assigned class org.matsim.core.mobsim.framework.listeners.MobsimListener to interface org.matsim.contrib.ev.stats.EnergyConsumptionCollector
2024-10-23T16:15:54,240  INFO QSimProvider:155 Added MobsimListener class org.matsim.contrib.ev.stats.EnergyConsumptionCollector
2024-10-23T16:15:54,253  INFO AbstractQNetsimEngine:426 Assigned 24432 nodes and 39275 links to QSimEngineRunner #0
2024-10-23T16:15:54,254  INFO AbstractQNetsimEngine:364 SIMULATION (QNetsimEngine) AT 00:00:00 : #links=0 #nodes=0
2024-10-23T16:15:54,254  INFO QSim:566 SIMULATION (NEW QSim) AT 00:00:00 : #Veh=15 lost=0 simT=0.0s realT=0s; (s/r): 0.0
2024-10-23T16:15:54,375  INFO AbstractQNetsimEngine:364 SIMULATION (QNetsimEngine) AT 01:00:00 : #links=0 #nodes=0
2024-10-23T16:15:54,375  INFO QSim:566 SIMULATION (NEW QSim) AT 01:00:00 : #Veh=15 lost=0 simT=3600.0s realT=0s; (s/r): Infinity
2024-10-23T16:15:54,497  INFO AbstractQNetsimEngine:364 SIMULATION (QNetsimEngine) AT 02:00:00 : #links=0 #nodes=0
2024-10-23T16:15:54,497  INFO QSim:566 SIMULATION (NEW QSim) AT 02:00:00 : #Veh=15 lost=0 simT=7200.0s realT=0s; (s/r): Infinity
2024-10-23T16:15:54,619  INFO AbstractQNetsimEngine:364 SIMULATION (QNetsimEngine) AT 03:00:00 : #links=0 #nodes=0
2024-10-23T16:15:54,619  INFO QSim:566 SIMULATION (NEW QSim) AT 03:00:00 : #Veh=15 lost=0 simT=10800.0s realT=0s; (s/r): Infinity
2024-10-23T16:15:54,722  INFO AbstractQNetsimEngine:364 SIMULATION (QNetsimEngine) AT 04:00:00 : #links=0 #nodes=0
2024-10-23T16:15:54,722  INFO QSim:566 SIMULATION (NEW QSim) AT 04:00:00 : #Veh=15 lost=0 simT=14400.0s realT=0s; (s/r): Infinity
2024-10-23T16:15:54,791  INFO AbstractQNetsimEngine:364 SIMULATION (QNetsimEngine) AT 05:00:00 : #links=0 #nodes=0
2024-10-23T16:15:54,792  INFO QSim:566 SIMULATION (NEW QSim) AT 05:00:00 : #Veh=15 lost=0 simT=18000.0s realT=0s; (s/r): Infinity
2024-10-23T16:15:54,856  INFO AbstractQNetsimEngine:364 SIMULATION (QNetsimEngine) AT 06:00:00 : #links=0 #nodes=0
2024-10-23T16:15:54,856  INFO QSim:566 SIMULATION (NEW QSim) AT 06:00:00 : #Veh=15 lost=0 simT=21600.0s realT=0s; (s/r): Infinity
2024-10-23T16:15:54,926  INFO AbstractQNetsimEngine:364 SIMULATION (QNetsimEngine) AT 07:00:00 : #links=0 #nodes=0
2024-10-23T16:15:54,926  INFO QSim:566 SIMULATION (NEW QSim) AT 07:00:00 : #Veh=15 lost=0 simT=25200.0s realT=0s; (s/r): Infinity
2024-10-23T16:15:55,003  INFO AbstractQNetsimEngine:364 SIMULATION (QNetsimEngine) AT 08:00:00 : #links=0 #nodes=15
2024-10-23T16:15:55,003  INFO QSim:566 SIMULATION (NEW QSim) AT 08:00:00 : #Veh=15 lost=0 simT=28800.0s realT=0s; (s/r): Infinity
2024-10-23T16:15:55,151  INFO AbstractQNetsimEngine:364 SIMULATION (QNetsimEngine) AT 09:00:00 : #links=9 #nodes=2
2024-10-23T16:15:55,151  INFO QSim:566 SIMULATION (NEW QSim) AT 09:00:00 : #Veh=10 lost=0 simT=32400.0s realT=0s; (s/r): Infinity
2024-10-23T16:15:55,256  INFO AbstractQNetsimEngine:364 SIMULATION (QNetsimEngine) AT 10:00:00 : #links=2 #nodes=0
2024-10-23T16:15:55,256  INFO QSim:566 SIMULATION (NEW QSim) AT 10:00:00 : #Veh=2 lost=0 simT=36000.0s realT=1s; (s/r): 36000.0
2024-10-23T16:15:55,362  INFO AbstractQNetsimEngine:364 SIMULATION (QNetsimEngine) AT 11:00:00 : #links=0 #nodes=0
2024-10-23T16:15:55,362  INFO QSim:566 SIMULATION (NEW QSim) AT 11:00:00 : #Veh=1 lost=0 simT=39600.0s realT=1s; (s/r): 39600.0
2024-10-23T16:15:55,466  INFO AbstractQNetsimEngine:364 SIMULATION (QNetsimEngine) AT 12:00:00 : #links=0 #nodes=0
2024-10-23T16:15:55,466  INFO QSim:566 SIMULATION (NEW QSim) AT 12:00:00 : #Veh=1 lost=0 simT=43200.0s realT=1s; (s/r): 43200.0
2024-10-23T16:15:55,571  INFO AbstractQNetsimEngine:364 SIMULATION (QNetsimEngine) AT 13:00:00 : #links=1 #nodes=0
2024-10-23T16:15:55,571  INFO QSim:566 SIMULATION (NEW QSim) AT 13:00:00 : #Veh=1 lost=0 simT=46800.0s realT=1s; (s/r): 46800.0
2024-10-23T16:15:55,678  INFO AbstractQNetsimEngine:364 SIMULATION (QNetsimEngine) AT 14:00:00 : #links=1 #nodes=0
2024-10-23T16:15:55,679  INFO QSim:566 SIMULATION (NEW QSim) AT 14:00:00 : #Veh=1 lost=0 simT=50400.0s realT=1s; (s/r): 50400.0
2024-10-23T16:15:55,977  INFO AbstractController$9:237 ### ITERATION 5 fires after mobsim event
2024-10-23T16:15:55,977  INFO ControlerListenerManagerImpl:269 calling notifyAfterMobsim on org.matsim.analysis.LegTimesControlerListener with priority 0.0
2024-10-23T16:15:55,977  INFO Gbl:196 Thread performance: Thread=class org.matsim.core.events.SimStepParallelEventsManagerImpl$ProcessEventsRunnable0  cpu-time=0.328423435sec
2024-10-23T16:15:55,977  INFO LegTimesControlerListener:51 [5] average trip (probably: leg) duration is: 5148 seconds = 01:25:48
2024-10-23T16:15:55,977  INFO ControlerListenerManagerImpl:269 calling notifyAfterMobsim on org.matsim.core.events.MobsimScopeEventHandling with priority 0.0
2024-10-23T16:15:55,977  INFO EventsManagerImpl:159 removing Event-Handler: org.matsim.contrib.ev.discharging.DriveDischargingHandler
2024-10-23T16:15:55,977  INFO EventsManagerImpl:159 removing Event-Handler: org.matsim.contrib.ev.discharging.DriveDischargingHandler
2024-10-23T16:15:55,977  INFO EventsManagerImpl:159 removing Event-Handler: org.matsim.contrib.ev.discharging.IdleDischargingHandler
2024-10-23T16:15:55,977  INFO EventsManagerImpl:159 removing Event-Handler: org.matsim.contrib.ev.discharging.IdleDischargingHandler
2024-10-23T16:15:55,977  INFO EventsManagerImpl:159 removing Event-Handler: org.matsim.contrib.ev.stats.EnergyConsumptionCollector
2024-10-23T16:15:55,977  INFO EventsManagerImpl:159 removing Event-Handler: org.matsim.contrib.ev.stats.EnergyConsumptionCollector
2024-10-23T16:15:55,977  INFO EventsManagerImpl:159 removing Event-Handler: org.matsim.contrib.ev.charging.VehicleChargingHandler
2024-10-23T16:15:55,977  INFO EventsManagerImpl:159 removing Event-Handler: org.matsim.contrib.ev.charging.VehicleChargingHandler
2024-10-23T16:15:55,978  INFO ControlerListenerManagerImpl:269 calling notifyAfterMobsim on org.matsim.core.scoring.EventsToActivities$1 with priority 0.0
2024-10-23T16:15:55,978  INFO ControlerListenerManagerImpl:272 [it.5] all ControlerAfterMobsimListeners called.
2024-10-23T16:15:55,978  INFO AbstractController$4:162 ### ITERATION 5 fires scoring event
2024-10-23T16:15:55,978  INFO ControlerListenerManagerImpl:197 calling notifyScoring on org.matsim.core.scoring.PlansScoringImpl with priority 0.0
2024-10-23T16:15:55,978  INFO NewScoreAssignerImpl:60 it: 5 msaStart: null
2024-10-23T16:15:55,978  INFO ControlerListenerManagerImpl:209 [it.5] all ControlerScoringListeners called.
2024-10-23T16:15:55,978  INFO AbstractController$5:170 ### ITERATION 5 fires iteration end event
2024-10-23T16:15:55,978  INFO ControlerListenerManagerImpl:172 calling notifyIterationEnds on org.matsim.core.controler.corelisteners.EventsHandlingImpl with priority 0.0
2024-10-23T16:15:55,978  INFO EventsManagerImpl:159 removing Event-Handler: org.matsim.core.events.algorithms.EventWriterXML
2024-10-23T16:15:55,978  INFO EventsManagerImpl:159 removing Event-Handler: org.matsim.core.events.algorithms.EventWriterXML
2024-10-23T16:15:55,978  INFO ControlerListenerManagerImpl:172 calling notifyIterationEnds on org.matsim.core.scoring.PlansScoringImpl with priority 0.0
2024-10-23T16:15:55,979  INFO ControlerListenerManagerImpl:180 calling notifyIterationEnds on org.matsim.counts.CountsControlerListener with priority 0.0
2024-10-23T16:15:55,979  INFO ControlerListenerManagerImpl:180 calling notifyIterationEnds on org.matsim.analysis.ModeChoiceCoverageControlerListener with priority 0.0
2024-10-23T16:15:55,979  INFO ModeChoiceCoverageControlerListener:144 -- mode choice coverage (1x) of mode car = 1.0
2024-10-23T16:15:55,979  INFO ModeChoiceCoverageControlerListener:144 -- mode choice coverage (5x) of mode car = 1.0
2024-10-23T16:15:55,979  INFO ModeChoiceCoverageControlerListener:144 -- mode choice coverage (10x) of mode car = 0.0
2024-10-23T16:15:56,036  INFO ControlerListenerManagerImpl:180 calling notifyIterationEnds on org.matsim.analysis.ModeStatsControlerListener with priority 0.0
2024-10-23T16:15:56,036  INFO ModeStatsControlerListener:133 Mode shares over all 15.0 trips found. MainModeIdentifier: class org.matsim.core.router.DefaultAnalysisMainModeIdentifier
2024-10-23T16:15:56,036  INFO ModeStatsControlerListener:140 -- mode share of mode car = 1.0
2024-10-23T16:15:56,074  INFO ControlerListenerManagerImpl:180 calling notifyIterationEnds on org.matsim.analysis.ScoreStatsControlerListener with priority 0.0
2024-10-23T16:15:56,075  INFO ScoreStatsControlerListener:154 -- avg. score of the executed plan of each agent: 128.2259377714697
2024-10-23T16:15:56,075  INFO ScoreStatsControlerListener:155 -- avg. score of the worst plan of each agent: 127.01503933994624
2024-10-23T16:15:56,075  INFO ScoreStatsControlerListener:156 -- avg. of the avg. plan score per agent: 127.45832070179662
2024-10-23T16:15:56,075  INFO ScoreStatsControlerListener:157 -- avg. score of the best plan of each agent: 128.2966698794066
2024-10-23T16:15:56,093  INFO ControlerListenerManagerImpl:180 calling notifyIterationEnds on org.matsim.analysis.IterationTravelStatsControlerListener with priority 0.0
2024-10-23T16:15:56,094  INFO TravelDistanceStats:115 -- average leg distance per plan (executed plans only): 134406.9624915754 meters
2024-10-23T16:15:56,094  INFO TravelDistanceStats:116 average leg distance per Person (executed plans only): 143367.42665768042 meters (statistic on all 16 legs which have a finite distance)
2024-10-23T16:15:56,094  INFO TravelDistanceStats:117 -- average trip distance per plan (executed plans only): 143367.42665768042 meters
2024-10-23T16:15:56,094  INFO TravelDistanceStats:118 average trip distance per Person (executed plans only): 143367.42665768042 meters (statistic on all 15 trips which have a finite distance)
2024-10-23T16:15:56,094  INFO TravelDistanceStats:119 (TravelDistanceStats takes an average over all legs where the simulation reports travelled (network) distances
2024-10-23T16:15:56,094  INFO TravelDistanceStats:120 (and teleported legs whose route contains a distance.)
2024-10-23T16:15:56,133  INFO ActivityWriter:39 Writing all Activities to activitiescsv
2024-10-23T16:15:56,133  INFO ActivityWriter:59 ...done
2024-10-23T16:15:56,133  INFO ControlerListenerManagerImpl:180 calling notifyIterationEnds on org.matsim.analysis.LegHistogramListener with priority 0.0
2024-10-23T16:15:56,134  INFO LegHistogramListener:73 number of legs:	16	100%
2024-10-23T16:15:56,134  INFO LegHistogramListener:80 number of car legs:	16	100.0%
2024-10-23T16:15:56,193  INFO ControlerListenerManagerImpl:180 calling notifyIterationEnds on org.matsim.analysis.LinkStatsControlerListener with priority 0.0
2024-10-23T16:15:56,194  INFO ControlerListenerManagerImpl:180 calling notifyIterationEnds on org.matsim.contrib.common.timeprofile.ProfileWriter with priority 0.0
2024-10-23T16:15:56,324  INFO ControlerListenerManagerImpl:180 calling notifyIterationEnds on org.matsim.contrib.ev.stats.ChargingProceduresCSVWriter with priority 0.0
2024-10-23T16:15:56,324  INFO ControlerListenerManagerImpl:184 [it.5] all ControlerIterationEndsListeners called.
2024-10-23T16:15:56,358  INFO AbstractController:184 ### ITERATION 5 ENDS
2024-10-23T16:15:56,358  INFO AbstractController:185 ###################################################
2024-10-23T16:15:56,358  INFO MatsimRuntimeModifications:80 S H U T D O W N   ---   start shutdown.
2024-10-23T16:15:56,358  INFO ControlerListenerManagerImpl:128 calling notifyShutdown on org.matsim.core.controler.corelisteners.EventsHandlingImpl with priority 0.0
2024-10-23T16:15:56,358  INFO ControlerListenerManagerImpl:128 calling notifyShutdown on org.matsim.core.controler.corelisteners.DumpDataAtEndImpl with priority 0.0
2024-10-23T16:15:56,359  INFO Counter:70 [PopulationWriter] dumped person # 1
2024-10-23T16:15:56,359  INFO Counter:70 [PopulationWriter] dumped person # 2
2024-10-23T16:15:56,359  INFO Counter:70 [PopulationWriter] dumped person # 4
2024-10-23T16:15:56,359  INFO Counter:70 [PopulationWriter] dumped person # 8
2024-10-23T16:15:56,360  INFO Counter:70 [ParallelPopulationWriterV6] dumped person # 1
2024-10-23T16:15:56,360  INFO Counter:70 [ParallelPopulationWriterV6] dumped person # 2
2024-10-23T16:15:56,361  INFO Counter:70 [ParallelPopulationWriterV6] dumped person # 4
2024-10-23T16:15:56,364  INFO Counter:70 [ParallelPopulationWriterV6] dumped person # 8
2024-10-23T16:15:56,366  INFO Counter:75 [ParallelPopulationWriterV6] dumped person # 15
2024-10-23T16:15:56,366  INFO PopulationWriter:150 Population written to: ./scenarios/originalev/evexample/output_plans.xml.gz
2024-10-23T16:15:56,366  INFO Counter:75 [PopulationWriter] dumped person # 15
2024-10-23T16:15:56,367  INFO NetworkWriter:70 Writing network to file: ./scenarios/originalev/evexample/output_network.xml.gz...
2024-10-23T16:15:56,648  INFO NetworkWriter:73 done.
2024-10-23T16:15:56,651  INFO Config:550 setting context to [file:/home/isaacpeterson/research/repos/matsim-libs/]
2024-10-23T16:15:56,652  INFO Config:550 setting context to [file:/home/isaacpeterson/research/repos/matsim-libs/]
2024-10-23T16:15:56,654  INFO Config:550 setting context to [file:/home/isaacpeterson/research/repos/matsim-libs/]
2024-10-23T16:15:56,654  INFO Config:550 setting context to [file:/home/isaacpeterson/research/repos/matsim-libs/]
2024-10-23T16:15:56,655  INFO Config:550 setting context to [file:/home/isaacpeterson/research/repos/matsim-libs/]
2024-10-23T16:15:56,656  INFO Config:550 setting context to [file:/home/isaacpeterson/research/repos/matsim-libs/]
2024-10-23T16:15:56,656  INFO Config:550 setting context to [file:/home/isaacpeterson/research/repos/matsim-libs/]
2024-10-23T16:15:56,657  INFO Config:550 setting context to [file:/home/isaacpeterson/research/repos/matsim-libs/]
2024-10-23T16:15:56,658  INFO Config:550 setting context to [file:/home/isaacpeterson/research/repos/matsim-libs/]
2024-10-23T16:15:56,658  INFO Config:550 setting context to [file:/home/isaacpeterson/research/repos/matsim-libs/]
2024-10-23T16:15:56,659  INFO Config:550 setting context to [file:/home/isaacpeterson/research/repos/matsim-libs/]
2024-10-23T16:15:56,659  INFO Config:550 setting context to [file:/home/isaacpeterson/research/repos/matsim-libs/]
2024-10-23T16:15:56,660  INFO Config:550 setting context to [file:/home/isaacpeterson/research/repos/matsim-libs/]
2024-10-23T16:15:56,660  INFO Config:550 setting context to [file:/home/isaacpeterson/research/repos/matsim-libs/]
2024-10-23T16:15:56,661  INFO Config:550 setting context to [file:/home/isaacpeterson/research/repos/matsim-libs/]
2024-10-23T16:15:56,662  INFO Config:550 setting context to [file:/home/isaacpeterson/research/repos/matsim-libs/]
2024-10-23T16:15:56,663  INFO Config:550 setting context to [file:/home/isaacpeterson/research/repos/matsim-libs/]
2024-10-23T16:15:56,663  INFO Config:550 setting context to [file:/home/isaacpeterson/research/repos/matsim-libs/]
2024-10-23T16:15:56,664  INFO Config:550 setting context to [file:/home/isaacpeterson/research/repos/matsim-libs/]
2024-10-23T16:15:56,665  INFO Config:550 setting context to [file:/home/isaacpeterson/research/repos/matsim-libs/]
2024-10-23T16:15:56,665  INFO Config:550 setting context to [file:/home/isaacpeterson/research/repos/matsim-libs/]
2024-10-23T16:15:56,671  INFO Config:550 setting context to [file:/home/isaacpeterson/research/repos/matsim-libs/]
2024-10-23T16:15:56,671  INFO Config:550 setting context to [file:/home/isaacpeterson/research/repos/matsim-libs/]
2024-10-23T16:15:56,672  INFO Config:550 setting context to [file:/home/isaacpeterson/research/repos/matsim-libs/]
2024-10-23T16:15:56,673  INFO Config:550 setting context to [file:/home/isaacpeterson/research/repos/matsim-libs/]
2024-10-23T16:15:56,674  INFO Config:550 setting context to [file:/home/isaacpeterson/research/repos/matsim-libs/]
2024-10-23T16:15:56,675  INFO Config:550 setting context to [file:/home/isaacpeterson/research/repos/matsim-libs/]
2024-10-23T16:15:56,675  INFO Config:550 setting context to [file:/home/isaacpeterson/research/repos/matsim-libs/]
2024-10-23T16:15:56,678  INFO MatsimVehicleWriter:49 about to write vehicles to: ./scenarios/originalev/evexample/output_vehicles.xml.gz
2024-10-23T16:15:56,678  INFO VehicleWriterV2:64 about to write vehicles to: ./scenarios/originalev/evexample/output_vehicles.xml.gz
2024-10-23T16:15:56,680  INFO MatsimVehicleWriter:49 about to write vehicles to: ./scenarios/originalev/evexample/output_allVehicles.xml.gz
2024-10-23T16:15:56,680  INFO VehicleWriterV2:64 about to write vehicles to: ./scenarios/originalev/evexample/output_allVehicles.xml.gz
2024-10-23T16:15:56,680  INFO HouseholdsWriterV10:66 about to write  households to: ./scenarios/originalev/evexample/output_households.xml.gz
2024-10-23T16:15:56,681  INFO Counter:75 [HouseholdsWriter] wrote household # 0
2024-10-23T16:15:56,681  INFO CountsWriterV2:45 Write Counts to ./scenarios/originalev/evexample/output_counts.xml.gz
2024-10-23T16:15:56,684  INFO ControlerListenerManagerImpl:135 calling notifyShutdown on org.matsim.analysis.ModeChoiceCoverageControlerListener with priority 0.0
2024-10-23T16:15:56,684  INFO ControlerListenerManagerImpl:135 calling notifyShutdown on org.matsim.analysis.ScoreStatsControlerListener with priority 0.0
2024-10-23T16:15:56,684  INFO ControlerListenerManagerImpl:135 calling notifyShutdown on org.matsim.analysis.IterationTravelStatsControlerListener with priority 0.0
2024-10-23T16:15:56,684  INFO PersonWriter:36 Writing all Persons to personscsv
2024-10-23T16:15:56,686  INFO PersonWriter:54 ...done
2024-10-23T16:15:56,686  INFO ControlerListenerManagerImpl:135 calling notifyShutdown on org.matsim.analysis.LinkStatsControlerListener with priority 0.0
2024-10-23T16:15:57,020  INFO ControlerListenerManagerImpl:138 all ControlerShutdownListeners called.
2024-10-23T16:15:57,020  INFO MatsimRuntimeModifications:103 S H U T D O W N   ---   shutdown completed.
2024-10-23T16:15:57,020  INFO OutputDirectoryLogging:172 closing the logfile, i.e. messages sent to the logger after this message are not written to the logfile.
